<tlLogics >
    <tlLogic id="J0" programID="0" type="static">
        <phase state="rrGGGrrrrrrrrGGGGGrrr" duration="15"/>
        <phase state="rrYYYrrrrrrrrYYYYYrrr" duration="3"/>
        <phase state="GGrrrrrrrGGGGrrrrrrrr" duration="15"/>
        <phase state="GYrrrrrrrGYYYrrrrrrrr" duration="3"/>
        <phase state="GrrrrrrrGGrrrrrrrrrrG" duration="15"/>
        <phase state="YrrrrrrrYYrrrrrrrrrrY" duration="3"/>
        <phase state="rrrGGGGGrrrrrrrrGGGGr" duration="15"/>
        <phase state="rrrGGYYYrrrrrrrrGGYYr" duration="3"/>
    </tlLogic>
</tlLogics>
