<tlLogics >
    <tlLogic id="J0" programID="0" type="static">
        <phase state="rrGGrrrrrrGGGrrrr" duration="15"/>
        <phase state="rrYYrrrrrrYYYrrrr" duration="3"/>
        <phase state="GGrrrrGGGGrrrrrrr" duration="15"/>
        <phase state="GYrrrrGGYYrrrrrrr" duration="3"/>
        <phase state="GrrrrGGGrrrrrrrGG" duration="15"/>
        <phase state="YrrrrYYYrrrrrrrYY" duration="3"/>
        <phase state="rrrGGrrrrrrrGGGrr" duration="15"/>
        <phase state="rrrGYrrrrrrrGYYrr" duration="3"/>
    </tlLogic>
</tlLogics>
