<tlLogics >
    <tlLogic id="J0" programID="0" type="static">
        <phase state="rrrGGrrrrrGGGrr" duration="15"/>
        <phase state="rrrYYrrrrrYYYrr" duration="3"/>
        <phase state="GGGrrrrrGGrrrrr" duration="15"/>
        <phase state="GGYrrrrrGYrrrrr" duration="3"/>
        <phase state="GGrrrrrGGrrrrrG" duration="15"/>
        <phase state="YYrrrrrYYrrrrrY" duration="3"/>
        <phase state="rrrrGGGrrrrrGGr" duration="15"/>
        <phase state="rrrrGYYrrrrrGYr" duration="3"/>
    </tlLogic>
</tlLogics>
