<tlLogics >
    <tlLogic id="J0" programID="0" type="static">
        <phase state="rrrrGGGrrrrrrrrrGGGGrr" duration="15"/>
        <phase state="rrrrYYYrrrrrrrrrYYYYrr" duration="3"/>
        <phase state="GGGGrrrrrrrGGGGGrrrrrr" duration="15"/>
        <phase state="GYYYrrrrrrrGYYYYrrrrrr" duration="3"/>
        <phase state="GrrrrrrrrGGGrrrrrrrrrG" duration="15"/>
        <phase state="YrrrrrrrrYYYrrrrrrrrrY" duration="3"/>
        <phase state="rrrrrGGGGrrrrrrrrrGGGr" duration="15"/>
        <phase state="rrrrrGGYYrrrrrrrrrGGYr" duration="3"/>
    </tlLogic>
</tlLogics>
