<tlLogics >
    <tlLogic id="J0" programID="0" type="static">
        <phase state="rrrrGGGrrrrrrGGGGrr" duration="15"/>
        <phase state="rrrrYYYrrrrrrYYYYrr" duration="3"/>
        <phase state="GGGGrrrrrrrGGrrrrrr" duration="15"/>
        <phase state="GYYYrrrrrrrGYrrrrrr" duration="3"/>
        <phase state="GrrrrrrrrGGGrrrrrrG" duration="15"/>
        <phase state="YrrrrrrrrYYYrrrrrrY" duration="3"/>
        <phase state="rrrrrrGGGrrrrrrrGGr" duration="15"/>
        <phase state="rrrrrrGYYrrrrrrrGYr" duration="3"/>
    </tlLogic>
</tlLogics>
