<tlLogics >
    <tlLogic id="J0" programID="0" type="static">
        <phase state="rrGGrrrrrrrrrGGGrrrrr" duration="15"/>
        <phase state="rrYYrrrrrrrrrYYYrrrrr" duration="3"/>
        <phase state="GGrrrrrrGGGGGrrrrrrrr" duration="15"/>
        <phase state="GYrrrrrrGYYYYrrrrrrrr" duration="3"/>
        <phase state="GrrrrGGGGrrrrrrrrrGGG" duration="15"/>
        <phase state="YrrrrYYYYrrrrrrrrrYYY" duration="3"/>
        <phase state="rrrGGrrrrrrrrrGGGGrrr" duration="15"/>
        <phase state="rrrGYrrrrrrrrrGGYYrrr" duration="3"/>
    </tlLogic>
</tlLogics>
