<tlLogics >
    <tlLogic id="J0" programID="0" type="static">
        <phase state="rrrrGGGGrrrrrGGrr" duration="15"/>
        <phase state="rrrrYYYYrrrrrYYrr" duration="3"/>
        <phase state="GGGGrrrrrrGGGrrrr" duration="15"/>
        <phase state="GGYYrrrrrrGYYrrrr" duration="3"/>
        <phase state="GGrrrrrrrGGrrrrrG" duration="15"/>
        <phase state="YYrrrrrrrYYrrrrrY" duration="3"/>
        <phase state="rrrrrrrGGrrrrrGGr" duration="15"/>
        <phase state="rrrrrrrGYrrrrrGYr" duration="3"/>
    </tlLogic>
</tlLogics>
