<tlLogics >
    <tlLogic id="J0" programID="0" type="static">
        <phase state="rrGGGGGrrrrrrGGGrrrrr" duration="15"/>
        <phase state="rrYYYYYrrrrrrYYYrrrrr" duration="3"/>
        <phase state="GGrrrrrrrrrGGrrrrrrrr" duration="15"/>
        <phase state="GYrrrrrrrrrGYrrrrrrrr" duration="3"/>
        <phase state="GrrrrrrrrGGGrrrrrrrrG" duration="15"/>
        <phase state="YrrrrrrrrYYYrrrrrrrrY" duration="3"/>
        <phase state="rrrrrGGGGrrrrrGGGGGGr" duration="15"/>
        <phase state="rrrrrGGYYrrrrrGGYYYYr" duration="3"/>
    </tlLogic>
</tlLogics>
