<tlLogics >
    <tlLogic id="J0" programID="0" type="static">
        <phase state="rrGGrrrrrGGGGrrr" duration="15"/>
        <phase state="rrYYrrrrrYYYYrrr" duration="3"/>
        <phase state="GGrrrrGGGrrrrrrr" duration="15"/>
        <phase state="GYrrrrGGYrrrrrrr" duration="3"/>
        <phase state="GrrrrGGGrrrrrrGG" duration="15"/>
        <phase state="YrrrrYYYrrrrrrYY" duration="3"/>
        <phase state="rrrGGrrrrrrrGGrr" duration="15"/>
        <phase state="rrrGYrrrrrrrGYrr" duration="3"/>
    </tlLogic>
</tlLogics>
