<tlLogics >
    <tlLogic id="J0" programID="0" type="static">
        <phase state="rrGGGrrrrrrGGGGrr" duration="15"/>
        <phase state="rrYYYrrrrrrYYYYrr" duration="3"/>
        <phase state="GGrrrrrrrGGrrrrrr" duration="15"/>
        <phase state="GYrrrrrrrGYrrrrrr" duration="3"/>
        <phase state="GrrrrrGGGGrrrrrrG" duration="15"/>
        <phase state="YrrrrrYYYYrrrrrrY" duration="3"/>
        <phase state="rrrGGGrrrrrrrrGGr" duration="15"/>
        <phase state="rrrGGYrrrrrrrrGYr" duration="3"/>
    </tlLogic>
</tlLogics>
