<tlLogics >
    <tlLogic id="J0" programID="0" type="static">
        <phase state="rrrrrGGGrrrrrrrrrGGrr" duration="15"/>
        <phase state="rrrrrYYYrrrrrrrrrYYrr" duration="3"/>
        <phase state="GGGGGrrrrrrrrGGGGrrrr" duration="15"/>
        <phase state="GYYYYrrrrrrrrGYYYrrrr" duration="3"/>
        <phase state="GrrrrrrrrrGGGGrrrrrrG" duration="15"/>
        <phase state="YrrrrrrrrrYYYYrrrrrrY" duration="3"/>
        <phase state="rrrrrrGGGGrrrrrrrrGGr" duration="15"/>
        <phase state="rrrrrrGGYYrrrrrrrrGYr" duration="3"/>
    </tlLogic>
</tlLogics>
