<tlLogics >
    <tlLogic id="J0" programID="0" type="static">
        <phase state="rrrGGGGrrrrrrrrrGGGrrrrr" duration="15"/>
        <phase state="rrrYYYYrrrrrrrrrYYYrrrrr" duration="3"/>
        <phase state="GGGrrrrrrrrGGGGGrrrrrrrr" duration="15"/>
        <phase state="GGYrrrrrrrrGYYYYrrrrrrrr" duration="3"/>
        <phase state="GGrrrrrrrGGGrrrrrrrrrGGG" duration="15"/>
        <phase state="YYrrrrrrrYYYrrrrrrrrrYYY" duration="3"/>
        <phase state="rrrrrGGGGrrrrrrrrrGGGrrr" duration="15"/>
        <phase state="rrrrrGGYYrrrrrrrrrGYYrrr" duration="3"/>
    </tlLogic>
</tlLogics>
