<tlLogics >
    <tlLogic id="J0" programID="0" type="static">
        <phase state="rrrrGGGrrrrrrrrGGGrrrrr" duration="15"/>
        <phase state="rrrrYYYrrrrrrrrYYYrrrrr" duration="3"/>
        <phase state="GGGGrrrrrrrGGGGrrrrrrrr" duration="15"/>
        <phase state="GGYYrrrrrrrGGYYrrrrrrrr" duration="3"/>
        <phase state="GGrrrrrrrrGGGrrrrrrrrrG" duration="15"/>
        <phase state="YYrrrrrrrrYYYrrrrrrrrrY" duration="3"/>
        <phase state="rrrrrrGGGGrrrrrrGGGGGGr" duration="15"/>
        <phase state="rrrrrrGYYYrrrrrrGGYYYYr" duration="3"/>
    </tlLogic>
</tlLogics>
