<tlLogics >
    <tlLogic id="J0" programID="0" type="static">
        <phase state="rrrrrrGGGrrrrrrGGGrrrr" duration="15"/>
        <phase state="rrrrrrYYYrrrrrrYYYrrrr" duration="3"/>
        <phase state="GGGGGGrrrrrrrGGrrrrrrr" duration="15"/>
        <phase state="GYYYYYrrrrrrrGYrrrrrrr" duration="3"/>
        <phase state="GrrrrrrrrrrGGGrrrrrrGG" duration="15"/>
        <phase state="YrrrrrrrrrrYYYrrrrrrYY" duration="3"/>
        <phase state="rrrrrrrGGGGrrrrrrGGGrr" duration="15"/>
        <phase state="rrrrrrrGGYYrrrrrrGYYrr" duration="3"/>
    </tlLogic>
</tlLogics>
