<tlLogics >
    <tlLogic id="J0" programID="0" type="static">
        <phase state="rrGGGGrrrrrrGGrrrrrr" duration="15"/>
        <phase state="rrYYYYrrrrrrYYrrrrrr" duration="3"/>
        <phase state="GGrrrrrrrrGGrrrrrrrr" duration="15"/>
        <phase state="GYrrrrrrrrGYrrrrrrrr" duration="3"/>
        <phase state="GrrrrrrrrGGrrrrrrGGG" duration="15"/>
        <phase state="YrrrrrrrrYYrrrrrrYYY" duration="3"/>
        <phase state="rrrrGGGGGrrrrGGGGrrr" duration="15"/>
        <phase state="rrrrGGYYYrrrrGYYYrrr" duration="3"/>
    </tlLogic>
</tlLogics>
