<tlLogics >
    <tlLogic id="J0" programID="0" type="static">
        <phase state="rrrrGGGrrrrrGGGrr" duration="15"/>
        <phase state="rrrrYYYrrrrrYYYrr" duration="3"/>
        <phase state="GGGGrrrrrrGGrrrrr" duration="15"/>
        <phase state="GGYYrrrrrrGYrrrrr" duration="3"/>
        <phase state="GGrrrrrrGGGrrrrrG" duration="15"/>
        <phase state="YYrrrrrrYYYrrrrrY" duration="3"/>
        <phase state="rrrrrrGGrrrrrGGGr" duration="15"/>
        <phase state="rrrrrrGYrrrrrGGYr" duration="3"/>
    </tlLogic>
</tlLogics>
