<tlLogics >
    <tlLogic id="J0" programID="0" type="static">
        <phase state="rrGGGrrrrrrrrGGrrrr" duration="15"/>
        <phase state="rrYYYrrrrrrrrYYrrrr" duration="3"/>
        <phase state="GGrrrrrGGGGGGrrrrrr" duration="15"/>
        <phase state="GYrrrrrGGYYYYrrrrrr" duration="3"/>
        <phase state="GrrrrrGGGrrrrrrrGGG" duration="15"/>
        <phase state="YrrrrrYYYrrrrrrrYYY" duration="3"/>
        <phase state="rrrGGGrrrrrrrrGGrrr" duration="15"/>
        <phase state="rrrGGYrrrrrrrrGYrrr" duration="3"/>
    </tlLogic>
</tlLogics>
