<tlLogics >
    <tlLogic id="J0" programID="0" type="static">
        <phase state="rrGGrrrrrrrrrrGGrrr" duration="15"/>
        <phase state="rrYYrrrrrrrrrrYYrrr" duration="3"/>
        <phase state="GGrrrrrrGGGGGGrrrrr" duration="15"/>
        <phase state="GYrrrrrrGYYYYYrrrrr" duration="3"/>
        <phase state="GrrrrrGGGrrrrrrrrGG" duration="15"/>
        <phase state="YrrrrrYYYrrrrrrrrYY" duration="3"/>
        <phase state="rrrGGGrrrrrrrrrGGrr" duration="15"/>
        <phase state="rrrGYYrrrrrrrrrGYrr" duration="3"/>
    </tlLogic>
</tlLogics>
