<tlLogics >
    <tlLogic id="J0" programID="0" type="static">
        <phase state="rrrrrGGrrrrrrrGGGGrrrr" duration="15"/>
        <phase state="rrrrrYYrrrrrrrYYYYrrrr" duration="3"/>
        <phase state="GGGGGrrrrrGGGGrrrrrrrr" duration="15"/>
        <phase state="GYYYYrrrrrGGYYrrrrrrrr" duration="3"/>
        <phase state="GrrrrrrrrGGGrrrrrrrrGG" duration="15"/>
        <phase state="YrrrrrrrrYYYrrrrrrrrYY" duration="3"/>
        <phase state="rrrrrrGGGrrrrrrrrGGGrr" duration="15"/>
        <phase state="rrrrrrGYYrrrrrrrrGYYrr" duration="3"/>
    </tlLogic>
</tlLogics>
