<tlLogics >
    <tlLogic id="J0" programID="0" type="static">
        <phase state="rrrGGrrrrrrrrGGrrrrr" duration="15"/>
        <phase state="rrrYYrrrrrrrrYYrrrrr" duration="3"/>
        <phase state="GGGrrrrrrGGGGrrrrrrr" duration="15"/>
        <phase state="GGYrrrrrrGYYYrrrrrrr" duration="3"/>
        <phase state="GGrrrrrrGGrrrrrrrrrG" duration="15"/>
        <phase state="YYrrrrrrYYrrrrrrrrrY" duration="3"/>
        <phase state="rrrrGGGGrrrrrrGGGGGr" duration="15"/>
        <phase state="rrrrGYYYrrrrrrGYYYYr" duration="3"/>
    </tlLogic>
</tlLogics>
