<tlLogics >
    <tlLogic id="J0" programID="0" type="static">
        <phase state="rrGGGrrrrrrrrrrGGrrrrrr" duration="15"/>
        <phase state="rrYYYrrrrrrrrrrYYrrrrrr" duration="3"/>
        <phase state="GGrrrrrrrrrGGGGrrrrrrrr" duration="15"/>
        <phase state="GYrrrrrrrrrGYYYrrrrrrrr" duration="3"/>
        <phase state="GrrrrrrrrrGGrrrrrrrrrrG" duration="15"/>
        <phase state="YrrrrrrrrrYYrrrrrrrrrrY" duration="3"/>
        <phase state="rrrrGGGGGGrrrrrrGGGGGGr" duration="15"/>
        <phase state="rrrrGYYYYYrrrrrrGYYYYYr" duration="3"/>
    </tlLogic>
</tlLogics>
