<tlLogics >
    <tlLogic id="J0" programID="0" type="static">
        <phase state="rrGGGGrrrrrGGGrrr" duration="15"/>
        <phase state="rrYYYYrrrrrYYYrrr" duration="3"/>
        <phase state="GGrrrrrrrGGrrrrrr" duration="15"/>
        <phase state="GYrrrrrrrGYrrrrrr" duration="3"/>
        <phase state="GrrrrrrGGGrrrrrGG" duration="15"/>
        <phase state="YrrrrrrYYYrrrrrYY" duration="3"/>
        <phase state="rrrrrGGrrrrrrGGrr" duration="15"/>
        <phase state="rrrrrGYrrrrrrGYrr" duration="3"/>
    </tlLogic>
</tlLogics>
