<tlLogics >
    <tlLogic id="J0" programID="0" type="static">
        <phase state="rrrrGGrrrrrrrrrrGGGrrr" duration="15"/>
        <phase state="rrrrYYrrrrrrrrrrYYYrrr" duration="3"/>
        <phase state="GGGGrrrrrrrrGGGGrrrrrr" duration="15"/>
        <phase state="GYYYrrrrrrrrGGYYrrrrrr" duration="3"/>
        <phase state="GrrrrrrrrrrGGGrrrrrrGG" duration="15"/>
        <phase state="YrrrrrrrrrrYYYrrrrrrYY" duration="3"/>
        <phase state="rrrrrGGGGGGrrrrrrGGGrr" duration="15"/>
        <phase state="rrrrrGYYYYYrrrrrrGGYrr" duration="3"/>
    </tlLogic>
</tlLogics>
