<tlLogics >
    <tlLogic id="J0" programID="0" type="static">
        <phase state="rrGGGGrrrrrrrGGGrrrrr" duration="15"/>
        <phase state="rrYYYYrrrrrrrYYYrrrrr" duration="3"/>
        <phase state="GGrrrrrrrGGGGrrrrrrrr" duration="15"/>
        <phase state="GYrrrrrrrGYYYrrrrrrrr" duration="3"/>
        <phase state="GrrrrrrrGGrrrrrrrrrGG" duration="15"/>
        <phase state="YrrrrrrrYYrrrrrrrrrYY" duration="3"/>
        <phase state="rrrrrGGGrrrrrrrGGGGrr" duration="15"/>
        <phase state="rrrrrGYYrrrrrrrGYYYrr" duration="3"/>
    </tlLogic>
</tlLogics>
