<tlLogics >
    <tlLogic id="J0" programID="0" type="static">
        <phase state="rrrGGGGrrrrrrGGrrr" duration="15"/>
        <phase state="rrrYYYYrrrrrrYYrrr" duration="3"/>
        <phase state="GGGrrrrrrrrGGrrrrr" duration="15"/>
        <phase state="GGYrrrrrrrrGYrrrrr" duration="3"/>
        <phase state="GGrrrrrrrrGGrrrrrG" duration="15"/>
        <phase state="YYrrrrrrrrYYrrrrrY" duration="3"/>
        <phase state="rrrrrGGGGGrrrrGGGr" duration="15"/>
        <phase state="rrrrrGGYYYrrrrGYYr" duration="3"/>
    </tlLogic>
</tlLogics>
