<tlLogics >
    <tlLogic id="J0" programID="0" type="static">
        <phase state="rrGGGGGrrrrrrrGGGrr" duration="15"/>
        <phase state="rrYYYYYrrrrrrrYYYrr" duration="3"/>
        <phase state="GGrrrrrrrrrGGGrrrrr" duration="15"/>
        <phase state="GYrrrrrrrrrGYYrrrrr" duration="3"/>
        <phase state="GrrrrrrrrGGGrrrrrrG" duration="15"/>
        <phase state="YrrrrrrrrYYYrrrrrrY" duration="3"/>
        <phase state="rrrrrGGGGrrrrrrGGGr" duration="15"/>
        <phase state="rrrrrGGYYrrrrrrGGYr" duration="3"/>
    </tlLogic>
</tlLogics>
