<tlLogics >
    <tlLogic id="J0" programID="0" type="static">
        <phase state="rrGGGGrrrrrrrrGGGrrrrr" duration="15"/>
        <phase state="rrYYYYrrrrrrrrYYYrrrrr" duration="3"/>
        <phase state="GGrrrrrrrrGGGGrrrrrrrr" duration="15"/>
        <phase state="GYrrrrrrrrGGYYrrrrrrrr" duration="3"/>
        <phase state="GrrrrrrrGGGGrrrrrrrGGG" duration="15"/>
        <phase state="YrrrrrrrYYYYrrrrrrrYYY" duration="3"/>
        <phase state="rrrrrGGGrrrrrrrrGGGrrr" duration="15"/>
        <phase state="rrrrrGYYrrrrrrrrGYYrrr" duration="3"/>
    </tlLogic>
</tlLogics>
