<tlLogics >
    <tlLogic id="J0" programID="0" type="static">
        <phase state="rrrrGGGGrrrrrrrGGrr" duration="15"/>
        <phase state="rrrrYYYYrrrrrrrYYrr" duration="3"/>
        <phase state="GGGGrrrrrrrrrGGrrrr" duration="15"/>
        <phase state="GYYYrrrrrrrrrGYrrrr" duration="3"/>
        <phase state="GrrrrrrrrrGGGGrrrrG" duration="15"/>
        <phase state="YrrrrrrrrrYYYYrrrrY" duration="3"/>
        <phase state="rrrrrrGGGGrrrrrrGGr" duration="15"/>
        <phase state="rrrrrrGGYYrrrrrrGYr" duration="3"/>
    </tlLogic>
</tlLogics>
