<tlLogics >
    <tlLogic id="J0" programID="0" type="static">
        <phase state="rrGGGrrrrrGGGrrrrr" duration="15"/>
        <phase state="rrYYYrrrrrYYYrrrrr" duration="3"/>
        <phase state="GGrrrrrGGGrrrrrrrr" duration="15"/>
        <phase state="GYrrrrrGGYrrrrrrrr" duration="3"/>
        <phase state="GrrrrrGGGrrrrrrGGG" duration="15"/>
        <phase state="YrrrrrYYYrrrrrrYYY" duration="3"/>
        <phase state="rrrGGGrrrrrrGGGrrr" duration="15"/>
        <phase state="rrrGGYrrrrrrGYYrrr" duration="3"/>
    </tlLogic>
</tlLogics>
