<nodes >
    <node id="J0" type="traffic_light" x="0.0" y="0.0"/>
    <node id="J1" x="0.0" y="300"/>
    <node id="J2" x="300" y="0.0"/>
    <node id="J3" x="0.0" y="-300"/>
    <node id="J4" x="-300" y="0.0"/>
</nodes>
