<tlLogics >
    <tlLogic id="J0" programID="0" type="static">
        <phase state="rrrGGGGrrrrrrrrGGGrr" duration="15"/>
        <phase state="rrrYYYYrrrrrrrrYYYrr" duration="3"/>
        <phase state="GGGrrrrrrrrGGGGrrrrr" duration="15"/>
        <phase state="GGYrrrrrrrrGGYYrrrrr" duration="3"/>
        <phase state="GGrrrrrrrrGGGrrrrrrG" duration="15"/>
        <phase state="YYrrrrrrrrYYYrrrrrrY" duration="3"/>
        <phase state="rrrrrrGGGGrrrrrrGGGr" duration="15"/>
        <phase state="rrrrrrGYYYrrrrrrGGYr" duration="3"/>
    </tlLogic>
</tlLogics>
