<tlLogics >
    <tlLogic id="J0" programID="0" type="static">
        <phase state="rrrGGGrrrrrrrGGGGGrrr" duration="15"/>
        <phase state="rrrYYYrrrrrrrYYYYYrrr" duration="3"/>
        <phase state="GGGrrrrrrrGGGrrrrrrrr" duration="15"/>
        <phase state="GYYrrrrrrrGGYrrrrrrrr" duration="3"/>
        <phase state="GrrrrrrGGGGGrrrrrrrGG" duration="15"/>
        <phase state="YrrrrrrYYYYYrrrrrrrYY" duration="3"/>
        <phase state="rrrrGGGrrrrrrrrrGGGrr" duration="15"/>
        <phase state="rrrrGGYrrrrrrrrrGGYrr" duration="3"/>
    </tlLogic>
</tlLogics>
