<tlLogics >
    <tlLogic id="J0" programID="0" type="static">
        <phase state="rrrGGGGGrrrrrrrrGGGGrrrrrr" duration="15"/>
        <phase state="rrrYYYYYrrrrrrrrYYYYrrrrrr" duration="3"/>
        <phase state="GGGrrrrrrrrrGGGGrrrrrrrrrr" duration="15"/>
        <phase state="GYYrrrrrrrrrGYYYrrrrrrrrrr" duration="3"/>
        <phase state="GrrrrrrrrrrGGrrrrrrrrrrrGG" duration="15"/>
        <phase state="YrrrrrrrrrrYYrrrrrrrrrrrYY" duration="3"/>
        <phase state="rrrrrrGGGGGrrrrrrrrGGGGGrr" duration="15"/>
        <phase state="rrrrrrGGYYYrrrrrrrrGYYYYrr" duration="3"/>
    </tlLogic>
</tlLogics>
