<tlLogics >
    <tlLogic id="J0" programID="0" type="static">
        <phase state="rrGGGrrrrrGGGrrrrrr" duration="15"/>
        <phase state="rrYYYrrrrrYYYrrrrrr" duration="3"/>
        <phase state="GGrrrrrGGGrrrrrrrrr" duration="15"/>
        <phase state="GYrrrrrGGYrrrrrrrrr" duration="3"/>
        <phase state="GrrrrrGGGrrrrrrrrGG" duration="15"/>
        <phase state="YrrrrrYYYrrrrrrrrYY" duration="3"/>
        <phase state="rrrGGGrrrrrrGGGGGrr" duration="15"/>
        <phase state="rrrGGYrrrrrrGYYYYrr" duration="3"/>
    </tlLogic>
</tlLogics>
