<tlLogics >
    <tlLogic id="J0" programID="0" type="static">
        <phase state="rrGGrrrrrrrrGGrrrr" duration="15"/>
        <phase state="rrYYrrrrrrrrYYrrrr" duration="3"/>
        <phase state="GGrrrrrrrrGGrrrrrr" duration="15"/>
        <phase state="GYrrrrrrrrGYrrrrrr" duration="3"/>
        <phase state="GrrrrrrGGGGrrrrrGG" duration="15"/>
        <phase state="YrrrrrrYYYYrrrrrYY" duration="3"/>
        <phase state="rrrGGGGrrrrrrGGGrr" duration="15"/>
        <phase state="rrrGYYYrrrrrrGYYrr" duration="3"/>
    </tlLogic>
</tlLogics>
