<tlLogics >
    <tlLogic id="J0" programID="0" type="static">
        <phase state="rrGGrrrrrrrrGGrr" duration="15"/>
        <phase state="rrYYrrrrrrrrYYrr" duration="3"/>
        <phase state="GGrrrrrrrrGGrrrr" duration="15"/>
        <phase state="GYrrrrrrrrGYrrrr" duration="3"/>
        <phase state="GrrrrrrrGGGrrrrG" duration="15"/>
        <phase state="YrrrrrrrYYYrrrrY" duration="3"/>
        <phase state="rrrGGGGGrrrrrGGr" duration="15"/>
        <phase state="rrrGYYYYrrrrrGYr" duration="3"/>
    </tlLogic>
</tlLogics>
