<tlLogics >
    <tlLogic id="J0" programID="0" type="static">
        <phase state="rrrGGGGrrrrGGrrrrrr" duration="15"/>
        <phase state="rrrYYYYrrrrYYrrrrrr" duration="3"/>
        <phase state="GGGrrrrrrGGrrrrrrrr" duration="15"/>
        <phase state="GGYrrrrrrGYrrrrrrrr" duration="3"/>
        <phase state="GGrrrrrrGGrrrrrrrrG" duration="15"/>
        <phase state="YYrrrrrrYYrrrrrrrrY" duration="3"/>
        <phase state="rrrrrrGGrrrrGGGGGGr" duration="15"/>
        <phase state="rrrrrrGYrrrrGYYYYYr" duration="3"/>
    </tlLogic>
</tlLogics>
