<tlLogics >
    <tlLogic id="J0" programID="0" type="static">
        <phase state="rrrGGGGrrrrrrGGrrrrr" duration="15"/>
        <phase state="rrrYYYYrrrrrrYYrrrrr" duration="3"/>
        <phase state="GGGrrrrrrrrGGrrrrrrr" duration="15"/>
        <phase state="GYYrrrrrrrrGYrrrrrrr" duration="3"/>
        <phase state="GrrrrrrrrrGGrrrrrrGG" duration="15"/>
        <phase state="YrrrrrrrrrYYrrrrrrYY" duration="3"/>
        <phase state="rrrrrGGGGGrrrrGGGGrr" duration="15"/>
        <phase state="rrrrrGGYYYrrrrGYYYrr" duration="3"/>
    </tlLogic>
</tlLogics>
