<tlLogics >
    <tlLogic id="J0" programID="0" type="static">
        <phase state="rrGGrrrrrrrGGrrrr" duration="15"/>
        <phase state="rrYYrrrrrrrYYrrrr" duration="3"/>
        <phase state="GGrrrrrrrGGrrrrrr" duration="15"/>
        <phase state="GYrrrrrrrGYrrrrrr" duration="3"/>
        <phase state="GrrrrrrGGGrrrrrrG" duration="15"/>
        <phase state="YrrrrrrYYYrrrrrrY" duration="3"/>
        <phase state="rrrGGGGrrrrrGGGGr" duration="15"/>
        <phase state="rrrGYYYrrrrrGYYYr" duration="3"/>
    </tlLogic>
</tlLogics>
