<tlLogics >
    <tlLogic id="J0" programID="0" type="static">
        <phase state="rrrGGrrrrrrGGGrr" duration="15"/>
        <phase state="rrrYYrrrrrrYYYrr" duration="3"/>
        <phase state="GGGrrrrrrGGrrrrr" duration="15"/>
        <phase state="GYYrrrrrrGYrrrrr" duration="3"/>
        <phase state="GrrrrrGGGGrrrrrG" duration="15"/>
        <phase state="YrrrrrYYYYrrrrrY" duration="3"/>
        <phase state="rrrrGGrrrrrrrGGr" duration="15"/>
        <phase state="rrrrGYrrrrrrrGYr" duration="3"/>
    </tlLogic>
</tlLogics>
