<tlLogics >
    <tlLogic id="J0" programID="0" type="static">
        <phase state="rrrGGGrrrrrrGGGrrrr" duration="15"/>
        <phase state="rrrYYYrrrrrrYYYrrrr" duration="3"/>
        <phase state="GGGrrrrrrGGGrrrrrrr" duration="15"/>
        <phase state="GGYrrrrrrGGYrrrrrrr" duration="3"/>
        <phase state="GGrrrrrGGGGrrrrrGGG" duration="15"/>
        <phase state="YYrrrrrYYYYrrrrrYYY" duration="3"/>
        <phase state="rrrrGGGrrrrrrrGGrrr" duration="15"/>
        <phase state="rrrrGGYrrrrrrrGYrrr" duration="3"/>
    </tlLogic>
</tlLogics>
