<tlLogics >
    <tlLogic id="J0" programID="0" type="static">
        <phase state="rrGGGrrrrrrrGGGrrrr" duration="15"/>
        <phase state="rrYYYrrrrrrrYYYrrrr" duration="3"/>
        <phase state="GGrrrrrrrrGGrrrrrrr" duration="15"/>
        <phase state="GYrrrrrrrrGYrrrrrrr" duration="3"/>
        <phase state="GrrrrrrrrGGrrrrrrGG" duration="15"/>
        <phase state="YrrrrrrrrYYrrrrrrYY" duration="3"/>
        <phase state="rrrGGGGGGrrrrGGGGrr" duration="15"/>
        <phase state="rrrGGYYYYrrrrGGYYrr" duration="3"/>
    </tlLogic>
</tlLogics>
