<tlLogics >
    <tlLogic id="J0" programID="0" type="static">
        <phase state="rrrGGGGGrrrrrrrrrrGGrrrrr" duration="15"/>
        <phase state="rrrYYYYYrrrrrrrrrrYYrrrrr" duration="3"/>
        <phase state="GGGrrrrrrrrrGGGGGGrrrrrrr" duration="15"/>
        <phase state="GGYrrrrrrrrrGYYYYYrrrrrrr" duration="3"/>
        <phase state="GGrrrrrrrrGGGrrrrrrrrrrrG" duration="15"/>
        <phase state="YYrrrrrrrrYYYrrrrrrrrrrrY" duration="3"/>
        <phase state="rrrrrrGGGGrrrrrrrrrGGGGGr" duration="15"/>
        <phase state="rrrrrrGGYYrrrrrrrrrGYYYYr" duration="3"/>
    </tlLogic>
</tlLogics>
