<tlLogics >
    <tlLogic id="J0" programID="0" type="static">
        <phase state="rrGGrrrrrrrGGGrr" duration="15"/>
        <phase state="rrYYrrrrrrrYYYrr" duration="3"/>
        <phase state="GGrrrrGGGGGrrrrr" duration="15"/>
        <phase state="GYrrrrGYYYYrrrrr" duration="3"/>
        <phase state="GrrrrGGrrrrrrrrG" duration="15"/>
        <phase state="YrrrrYYrrrrrrrrY" duration="3"/>
        <phase state="rrrGGrrrrrrrrGGr" duration="15"/>
        <phase state="rrrGYrrrrrrrrGYr" duration="3"/>
    </tlLogic>
</tlLogics>
