<tlLogics >
    <tlLogic id="J0" programID="0" type="static">
        <phase state="rrGGGGGrrrrrrGGGrrr" duration="15"/>
        <phase state="rrYYYYYrrrrrrYYYrrr" duration="3"/>
        <phase state="GGrrrrrrrrGGGrrrrrr" duration="15"/>
        <phase state="GYrrrrrrrrGYYrrrrrr" duration="3"/>
        <phase state="GrrrrrrrGGGrrrrrrGG" duration="15"/>
        <phase state="YrrrrrrrYYYrrrrrrYY" duration="3"/>
        <phase state="rrrrrGGGrrrrrrGGGrr" duration="15"/>
        <phase state="rrrrrGGYrrrrrrGGYrr" duration="3"/>
    </tlLogic>
</tlLogics>
