<tlLogics >
    <tlLogic id="J0" programID="0" type="static">
        <phase state="rrrrGGGrrrrrGGrr" duration="15"/>
        <phase state="rrrrYYYrrrrrYYrr" duration="3"/>
        <phase state="GGGGrrrrrGGGrrrr" duration="15"/>
        <phase state="GGYYrrrrrGGYrrrr" duration="3"/>
        <phase state="GGrrrrrrGGGrrrrG" duration="15"/>
        <phase state="YYrrrrrrYYYrrrrY" duration="3"/>
        <phase state="rrrrrrGGrrrrrGGr" duration="15"/>
        <phase state="rrrrrrGYrrrrrGYr" duration="3"/>
    </tlLogic>
</tlLogics>
