<tlLogics >
    <tlLogic id="J0" programID="0" type="static">
        <phase state="rrrGGGrrrrrrrrrGGrrrrrr" duration="15"/>
        <phase state="rrrYYYrrrrrrrrrYYrrrrrr" duration="3"/>
        <phase state="GGGrrrrrrGGGGGGrrrrrrrr" duration="15"/>
        <phase state="GGYrrrrrrGGYYYYrrrrrrrr" duration="3"/>
        <phase state="GGrrrrrGGGGrrrrrrrrrGGG" duration="15"/>
        <phase state="YYrrrrrYYYYrrrrrrrrrYYY" duration="3"/>
        <phase state="rrrrrGGrrrrrrrrrGGGGrrr" duration="15"/>
        <phase state="rrrrrGYrrrrrrrrrGYYYrrr" duration="3"/>
    </tlLogic>
</tlLogics>
