<tlLogics >
    <tlLogic id="J0" programID="0" type="static">
        <phase state="rrrGGGGrrrrrrGGGGGrr" duration="15"/>
        <phase state="rrrYYYYrrrrrrYYYYYrr" duration="3"/>
        <phase state="GGGrrrrrrGGGGrrrrrrr" duration="15"/>
        <phase state="GGYrrrrrrGYYYrrrrrrr" duration="3"/>
        <phase state="GGrrrrrrGGrrrrrrrrrG" duration="15"/>
        <phase state="YYrrrrrrYYrrrrrrrrrY" duration="3"/>
        <phase state="rrrrrGGGrrrrrrrrGGGr" duration="15"/>
        <phase state="rrrrrGGYrrrrrrrrGGYr" duration="3"/>
    </tlLogic>
</tlLogics>
