<?xml version="1.0" encoding="UTF-8"?>

<!-- generated on 2024-10-31 20:45:12 by Eclipse SUMO netedit Version 1.18.0
<configuration xmlns:xsi="http://www.w3.org/2001/XMLSchema-instance" xsi:noNamespaceSchemaLocation="http://sumo.dlr.de/xsd/neteditConfiguration.xsd">

    <input>
        <sumo-net-file value="C:\Users\master\OneDrive - postech.ac.kr\SO_DNN\network\I1.net.xml"/>
    </input>

    <output>
        <output-file value="C:\Users\master\OneDrive - postech.ac.kr\SO_DNN\network\I1.net.xml"/>
    </output>

    <processing>
        <geometry.min-radius.fix.railways value="false"/>
        <geometry.max-grade.fix value="false"/>
        <offset.disable-normalization value="true"/>
        <lefthand value="0"/>
    </processing>

    <junctions>
        <no-turnarounds value="true"/>
        <junctions.corner-detail value="5"/>
        <junctions.limit-turn-speed value="5.50"/>
        <rectangular-lane-cut value="0"/>
    </junctions>

    <pedestrian>
        <walkingareas value="0"/>
    </pedestrian>

</configuration>
-->

<net version="1.16" junctionCornerDetail="5" limitTurnSpeed="5.50" xmlns:xsi="http://www.w3.org/2001/XMLSchema-instance" xsi:noNamespaceSchemaLocation="http://sumo.dlr.de/xsd/net_file.xsd">

    <location netOffset="0.00,0.00" convBoundary="-600.00,-300.00,0.00,300.00" origBoundary="-10000000000.00,-10000000000.00,10000000000.00,10000000000.00" projParameter="!"/>

    <edge id=":J0_0" function="internal">
        <lane id=":J0_0_0" index="0" speed="6.51" length="9.03" shape="-308.00,20.00 -308.35,17.55 -309.40,15.80 -311.15,14.75 -313.60,14.40"/>
    </edge>
    <edge id=":J0_1" function="internal">
        <lane id=":J0_1_0" index="0" speed="13.89" length="43.20" shape="-304.80,20.00 -304.80,-23.20"/>
    </edge>
    <edge id=":J0_2" function="internal">
        <lane id=":J0_2_0" index="0" speed="11.84" length="32.30" shape="-301.60,20.00 -300.45,10.55 -297.00,3.80 -291.25,-0.25 -283.20,-1.60"/>
    </edge>
    <edge id=":J0_3" function="internal">
        <lane id=":J0_3_0" index="0" speed="6.51" length="9.03" shape="-283.20,14.40 -285.65,14.75 -287.40,15.80 -288.45,17.55 -288.80,20.00"/>
    </edge>
    <edge id=":J0_4" function="internal">
        <lane id=":J0_4_0" index="0" speed="13.89" length="30.40" shape="-283.20,11.20 -313.60,11.20"/>
        <lane id=":J0_4_1" index="1" speed="13.89" length="30.40" shape="-283.20,8.00 -313.60,8.00"/>
        <lane id=":J0_4_2" index="2" speed="13.89" length="30.40" shape="-283.20,4.80 -313.60,4.80"/>
    </edge>
    <edge id=":J0_7" function="internal">
        <lane id=":J0_7_0" index="0" speed="12.30" length="34.99" shape="-283.20,1.60 -291.25,0.05 -297.00,-4.60 -300.45,-12.35 -301.60,-23.20"/>
    </edge>
    <edge id=":J0_8" function="internal">
        <lane id=":J0_8_0" index="0" speed="6.51" length="9.03" shape="-288.80,-23.20 -288.45,-20.75 -287.40,-19.00 -285.65,-17.95 -283.20,-17.60"/>
    </edge>
    <edge id=":J0_9" function="internal">
        <lane id=":J0_9_0" index="0" speed="13.89" length="43.20" shape="-292.00,-23.20 -292.00,20.00"/>
    </edge>
    <edge id=":J0_10" function="internal">
        <lane id=":J0_10_0" index="0" speed="12.76" length="37.73" shape="-295.20,-23.20 -296.35,-10.95 -299.80,-2.20 -305.55,3.05 -313.60,4.80"/>
        <lane id=":J0_10_1" index="1" speed="11.89" length="32.62" shape="-298.40,-23.20 -299.35,-12.35 -302.20,-4.60 -306.95,0.05 -313.60,1.60"/>
    </edge>
    <edge id=":J0_12" function="internal">
        <lane id=":J0_12_0" index="0" speed="6.51" length="9.03" shape="-313.60,-17.60 -311.15,-17.95 -309.40,-19.00 -308.35,-20.75 -308.00,-23.20"/>
    </edge>
    <edge id=":J0_13" function="internal">
        <lane id=":J0_13_0" index="0" speed="13.89" length="30.40" shape="-313.60,-14.40 -283.20,-14.40"/>
        <lane id=":J0_13_1" index="1" speed="13.89" length="30.40" shape="-313.60,-11.20 -283.20,-11.20"/>
        <lane id=":J0_13_2" index="2" speed="13.89" length="30.40" shape="-313.60,-8.00 -283.20,-8.00"/>
        <lane id=":J0_13_3" index="3" speed="13.89" length="30.40" shape="-313.60,-4.80 -283.20,-4.80"/>
    </edge>
    <edge id=":J0_17" function="internal">
        <lane id=":J0_17_0" index="0" speed="11.39" length="29.85" shape="-313.60,-1.60 -306.95,-0.25 -302.20,3.80 -299.35,10.55 -298.40,20.00"/>
    </edge>

    <edge id="1I" from="J1" to="J0" priority="-1">
        <lane id="1I_0" index="0" speed="13.89" length="280.00" shape="-308.00,300.00 -308.00,20.00"/>
        <lane id="1I_1" index="1" speed="13.89" length="280.00" shape="-304.80,300.00 -304.80,20.00"/>
        <lane id="1I_2" index="2" speed="13.89" length="280.00" shape="-301.60,300.00 -301.60,20.00"/>
    </edge>
    <edge id="1O" from="J0" to="J1" priority="-1">
        <lane id="1O_0" index="0" speed="13.89" length="280.00" shape="-288.80,20.00 -288.80,300.00"/>
        <lane id="1O_1" index="1" speed="13.89" length="280.00" shape="-292.00,20.00 -292.00,300.00"/>
        <lane id="1O_2" index="2" speed="13.89" length="280.00" shape="-295.20,20.00 -295.20,300.00"/>
        <lane id="1O_3" index="3" speed="13.89" length="280.00" shape="-298.40,20.00 -298.40,300.00"/>
    </edge>
    <edge id="2I" from="J2" to="J0" priority="-1">
        <lane id="2I_0" index="0" speed="13.89" length="283.20" shape="0.00,14.40 -283.20,14.40"/>
        <lane id="2I_1" index="1" speed="13.89" length="283.20" shape="0.00,11.20 -283.20,11.20"/>
        <lane id="2I_2" index="2" speed="13.89" length="283.20" shape="0.00,8.00 -283.20,8.00"/>
        <lane id="2I_3" index="3" speed="13.89" length="283.20" shape="0.00,4.80 -283.20,4.80"/>
        <lane id="2I_4" index="4" speed="13.89" length="283.20" shape="0.00,1.60 -283.20,1.60"/>
    </edge>
    <edge id="2O" from="J0" to="J2" priority="-1">
        <lane id="2O_0" index="0" speed="13.89" length="283.20" shape="-283.20,-17.60 0.00,-17.60"/>
        <lane id="2O_1" index="1" speed="13.89" length="283.20" shape="-283.20,-14.40 0.00,-14.40"/>
        <lane id="2O_2" index="2" speed="13.89" length="283.20" shape="-283.20,-11.20 0.00,-11.20"/>
        <lane id="2O_3" index="3" speed="13.89" length="283.20" shape="-283.20,-8.00 0.00,-8.00"/>
        <lane id="2O_4" index="4" speed="13.89" length="283.20" shape="-283.20,-4.80 0.00,-4.80"/>
        <lane id="2O_5" index="5" speed="13.89" length="283.20" shape="-283.20,-1.60 0.00,-1.60"/>
    </edge>
    <edge id="3I" from="J3" to="J0" priority="-1">
        <lane id="3I_0" index="0" speed="13.89" length="276.80" shape="-288.80,-300.00 -288.80,-23.20"/>
        <lane id="3I_1" index="1" speed="13.89" length="276.80" shape="-292.00,-300.00 -292.00,-23.20"/>
        <lane id="3I_2" index="2" speed="13.89" length="276.80" shape="-295.20,-300.00 -295.20,-23.20"/>
        <lane id="3I_3" index="3" speed="13.89" length="276.80" shape="-298.40,-300.00 -298.40,-23.20"/>
    </edge>
    <edge id="3O" from="J0" to="J3" priority="-1">
        <lane id="3O_0" index="0" speed="13.89" length="276.80" shape="-308.00,-23.20 -308.00,-300.00"/>
        <lane id="3O_1" index="1" speed="13.89" length="276.80" shape="-304.80,-23.20 -304.80,-300.00"/>
        <lane id="3O_2" index="2" speed="13.89" length="276.80" shape="-301.60,-23.20 -301.60,-300.00"/>
    </edge>
    <edge id="4I" from="J4" to="J0" priority="-1">
        <lane id="4I_0" index="0" speed="13.89" length="286.40" shape="-600.00,-17.60 -313.60,-17.60"/>
        <lane id="4I_1" index="1" speed="13.89" length="286.40" shape="-600.00,-14.40 -313.60,-14.40"/>
        <lane id="4I_2" index="2" speed="13.89" length="286.40" shape="-600.00,-11.20 -313.60,-11.20"/>
        <lane id="4I_3" index="3" speed="13.89" length="286.40" shape="-600.00,-8.00 -313.60,-8.00"/>
        <lane id="4I_4" index="4" speed="13.89" length="286.40" shape="-600.00,-4.80 -313.60,-4.80"/>
        <lane id="4I_5" index="5" speed="13.89" length="286.40" shape="-600.00,-1.60 -313.60,-1.60"/>
    </edge>
    <edge id="4O" from="J0" to="J4" priority="-1">
        <lane id="4O_0" index="0" speed="13.89" length="286.40" shape="-313.60,14.40 -600.00,14.40"/>
        <lane id="4O_1" index="1" speed="13.89" length="286.40" shape="-313.60,11.20 -600.00,11.20"/>
        <lane id="4O_2" index="2" speed="13.89" length="286.40" shape="-313.60,8.00 -600.00,8.00"/>
        <lane id="4O_3" index="3" speed="13.89" length="286.40" shape="-313.60,4.80 -600.00,4.80"/>
        <lane id="4O_4" index="4" speed="13.89" length="286.40" shape="-313.60,1.60 -600.00,1.60"/>
    </edge>

    <tlLogic id="J0" type="static" programID="0" offset="0">
        <phase duration="15" state="rrGGrrrrrrGGGrrrrr"/>
        <phase duration="3"  state="rrYYrrrrrrYYYrrrrr"/>
        <phase duration="15" state="GGrrrrrrGGrrrrrrrr"/>
        <phase duration="3"  state="GYrrrrrrGYrrrrrrrr"/>
        <phase duration="15" state="GrrrrrrGGrrrrrrrrG"/>
        <phase duration="3"  state="YrrrrrrYYrrrrrrrrY"/>
        <phase duration="15" state="rrrGGGGrrrrrGGGGGr"/>
        <phase duration="3"  state="rrrGYYYrrrrrGYYYYr"/>
    </tlLogic>

    <junction id="J0" type="traffic_light" x="-300.00" y="0.00" incLanes="1I_0 1I_1 1I_2 2I_0 2I_1 2I_2 2I_3 2I_4 3I_0 3I_1 3I_2 3I_3 4I_0 4I_1 4I_2 4I_3 4I_4 4I_5" intLanes=":J0_0_0 :J0_1_0 :J0_2_0 :J0_3_0 :J0_4_0 :J0_4_1 :J0_4_2 :J0_7_0 :J0_8_0 :J0_9_0 :J0_10_0 :J0_10_1 :J0_12_0 :J0_13_0 :J0_13_1 :J0_13_2 :J0_13_3 :J0_17_0" shape="-309.60,20.00 -287.20,20.00 -286.76,17.78 -286.20,17.00 -285.42,16.44 -284.42,16.11 -283.20,16.00 -283.20,-19.20 -285.42,-19.64 -286.20,-20.20 -286.76,-20.98 -287.09,-21.98 -287.20,-23.20 -309.60,-23.20 -310.04,-20.98 -310.60,-20.20 -311.38,-19.64 -312.38,-19.31 -313.60,-19.20 -313.60,16.00 -311.38,16.44 -310.60,17.00 -310.04,17.78 -309.71,18.78" radius="4.00">
        <request index="0"  response="000000000000000000" foes="000000000000000000" cont="0"/>
        <request index="1"  response="111110000001110000" foes="111110110001110000" cont="0"/>
        <request index="2"  response="100000001011110000" foes="100000001011110000" cont="0"/>
        <request index="3"  response="000000000000000000" foes="000000000000000000" cont="0"/>
        <request index="4"  response="000000000000000000" foes="100000111000000110" cont="0"/>
        <request index="5"  response="000000000000000000" foes="100000111000000110" cont="0"/>
        <request index="6"  response="000000000000000000" foes="100000111000000110" cont="0"/>
        <request index="7"  response="011110000000000000" foes="011110111000000100" cont="0"/>
        <request index="8"  response="000000000000000000" foes="000000000000000000" cont="0"/>
        <request index="9"  response="011110000011110000" foes="011110000011110100" cont="0"/>
        <request index="10" response="111110000011110010" foes="111110000011110010" cont="0"/>
        <request index="11" response="111110000011110010" foes="111110000011110010" cont="0"/>
        <request index="12" response="000000000000000000" foes="000000000000000000" cont="0"/>
        <request index="13" response="000000000000000000" foes="000000111010000010" cont="0"/>
        <request index="14" response="000000000000000000" foes="000000111010000010" cont="0"/>
        <request index="15" response="000000000000000000" foes="000000111010000010" cont="0"/>
        <request index="16" response="000000000000000000" foes="000000111010000010" cont="0"/>
        <request index="17" response="000000000001110000" foes="000000110001110110" cont="0"/>
    </junction>
    <junction id="J1" type="dead_end" x="-300.00" y="300.00" incLanes="1O_0 1O_1 1O_2 1O_3" intLanes="" shape="-300.00,300.00 -287.20,300.00 -300.00,300.00"/>
    <junction id="J2" type="dead_end" x="0.00" y="0.00" incLanes="2O_0 2O_1 2O_2 2O_3 2O_4 2O_5" intLanes="" shape="0.00,0.00 0.00,-19.20 0.00,0.00" radius="4.00"/>
    <junction id="J3" type="dead_end" x="-300.00" y="-300.00" incLanes="3O_0 3O_1 3O_2" intLanes="" shape="-300.00,-300.00 -309.60,-300.00 -300.00,-300.00"/>
    <junction id="J4" type="dead_end" x="-600.00" y="0.00" incLanes="4O_0 4O_1 4O_2 4O_3 4O_4" intLanes="" shape="-600.00,0.00 -600.00,16.00 -600.00,0.00"/>

    <connection from="1I" to="4O" fromLane="0" toLane="0" via=":J0_0_0" tl="J0" linkIndex="0" dir="r" state="O"/>
    <connection from="1I" to="3O" fromLane="1" toLane="1" via=":J0_1_0" tl="J0" linkIndex="1" dir="s" state="o"/>
    <connection from="1I" to="2O" fromLane="2" toLane="5" via=":J0_2_0" tl="J0" linkIndex="2" dir="l" state="o"/>
    <connection from="2I" to="1O" fromLane="0" toLane="0" via=":J0_3_0" tl="J0" linkIndex="3" dir="r" state="O"/>
    <connection from="2I" to="4O" fromLane="1" toLane="1" via=":J0_4_0" tl="J0" linkIndex="4" dir="s" state="O"/>
    <connection from="2I" to="4O" fromLane="2" toLane="2" via=":J0_4_1" tl="J0" linkIndex="5" dir="s" state="O"/>
    <connection from="2I" to="4O" fromLane="3" toLane="3" via=":J0_4_2" tl="J0" linkIndex="6" dir="s" state="O"/>
    <connection from="2I" to="3O" fromLane="4" toLane="2" via=":J0_7_0" tl="J0" linkIndex="7" dir="l" state="o"/>
    <connection from="3I" to="2O" fromLane="0" toLane="0" via=":J0_8_0" tl="J0" linkIndex="8" dir="r" state="O"/>
    <connection from="3I" to="1O" fromLane="1" toLane="1" via=":J0_9_0" tl="J0" linkIndex="9" dir="s" state="o"/>
    <connection from="3I" to="4O" fromLane="2" toLane="3" via=":J0_10_0" tl="J0" linkIndex="10" dir="l" state="o"/>
    <connection from="3I" to="4O" fromLane="3" toLane="4" via=":J0_10_1" tl="J0" linkIndex="11" dir="l" state="o"/>
    <connection from="4I" to="3O" fromLane="0" toLane="0" via=":J0_12_0" tl="J0" linkIndex="12" dir="r" state="O"/>
    <connection from="4I" to="2O" fromLane="1" toLane="1" via=":J0_13_0" tl="J0" linkIndex="13" dir="s" state="O"/>
    <connection from="4I" to="2O" fromLane="2" toLane="2" via=":J0_13_1" tl="J0" linkIndex="14" dir="s" state="O"/>
    <connection from="4I" to="2O" fromLane="3" toLane="3" via=":J0_13_2" tl="J0" linkIndex="15" dir="s" state="O"/>
    <connection from="4I" to="2O" fromLane="4" toLane="4" via=":J0_13_3" tl="J0" linkIndex="16" dir="s" state="O"/>
    <connection from="4I" to="1O" fromLane="5" toLane="3" via=":J0_17_0" tl="J0" linkIndex="17" dir="l" state="o"/>

    <connection from=":J0_0" to="4O" fromLane="0" toLane="0" dir="r" state="M"/>
    <connection from=":J0_1" to="3O" fromLane="0" toLane="1" dir="s" state="M"/>
    <connection from=":J0_2" to="2O" fromLane="0" toLane="5" dir="l" state="M"/>
    <connection from=":J0_3" to="1O" fromLane="0" toLane="0" dir="r" state="M"/>
    <connection from=":J0_4" to="4O" fromLane="0" toLane="1" dir="s" state="M"/>
    <connection from=":J0_4" to="4O" fromLane="1" toLane="2" dir="s" state="M"/>
    <connection from=":J0_4" to="4O" fromLane="2" toLane="3" dir="s" state="M"/>
    <connection from=":J0_7" to="3O" fromLane="0" toLane="2" dir="l" state="M"/>
    <connection from=":J0_8" to="2O" fromLane="0" toLane="0" dir="r" state="M"/>
    <connection from=":J0_9" to="1O" fromLane="0" toLane="1" dir="s" state="M"/>
    <connection from=":J0_10" to="4O" fromLane="0" toLane="3" dir="l" state="M"/>
    <connection from=":J0_10" to="4O" fromLane="1" toLane="4" dir="l" state="M"/>
    <connection from=":J0_12" to="3O" fromLane="0" toLane="0" dir="r" state="M"/>
    <connection from=":J0_13" to="2O" fromLane="0" toLane="1" dir="s" state="M"/>
    <connection from=":J0_13" to="2O" fromLane="1" toLane="2" dir="s" state="M"/>
    <connection from=":J0_13" to="2O" fromLane="2" toLane="3" dir="s" state="M"/>
    <connection from=":J0_13" to="2O" fromLane="3" toLane="4" dir="s" state="M"/>
    <connection from=":J0_17" to="1O" fromLane="0" toLane="3" dir="l" state="M"/>

</net>
