<?xml version="1.0" encoding="UTF-8"?>

<!-- generated on 2024-10-31 20:45:53 by Eclipse SUMO netedit Version 1.18.0
<configuration xmlns:xsi="http://www.w3.org/2001/XMLSchema-instance" xsi:noNamespaceSchemaLocation="http://sumo.dlr.de/xsd/neteditConfiguration.xsd">

    <input>
        <sumo-net-file value="C:\Users\master\OneDrive - postech.ac.kr\SO_DNN\network\I2.net.xml"/>
    </input>

    <output>
        <output-file value="C:\Users\master\OneDrive - postech.ac.kr\SO_DNN\network\I2.net.xml"/>
    </output>

    <processing>
        <geometry.min-radius.fix.railways value="false"/>
        <geometry.max-grade.fix value="false"/>
        <offset.disable-normalization value="true"/>
        <lefthand value="0"/>
    </processing>

    <junctions>
        <no-turnarounds value="true"/>
        <junctions.corner-detail value="5"/>
        <junctions.limit-turn-speed value="5.50"/>
        <rectangular-lane-cut value="0"/>
    </junctions>

    <pedestrian>
        <walkingareas value="0"/>
    </pedestrian>

</configuration>
-->

<net version="1.16" junctionCornerDetail="5" limitTurnSpeed="5.50" xmlns:xsi="http://www.w3.org/2001/XMLSchema-instance" xsi:noNamespaceSchemaLocation="http://sumo.dlr.de/xsd/net_file.xsd">

    <location netOffset="0.00,0.00" convBoundary="-300.00,-300.00,500.00,300.00" origBoundary="-10000000000.00,-10000000000.00,10000000000.00,10000000000.00" projParameter="!"/>

    <edge id=":J0_0" function="internal">
        <lane id=":J0_0_0" index="0" speed="6.51" length="9.03" shape="-14.40,20.00 -14.75,17.55 -15.80,15.80 -17.55,14.75 -20.00,14.40"/>
    </edge>
    <edge id=":J0_1" function="internal">
        <lane id=":J0_1_0" index="0" speed="13.89" length="46.40" shape="-11.20,20.00 -11.20,-26.40"/>
    </edge>
    <edge id=":J0_2" function="internal">
        <lane id=":J0_2_0" index="0" speed="12.98" length="39.08" shape="-8.00,20.00 -5.37,11.88 1.08,2.67 9.20,-4.88 16.80,-8.00"/>
        <lane id=":J0_2_1" index="1" speed="12.26" length="34.71" shape="-4.80,20.00 -2.66,12.38 2.72,4.27 9.73,-2.18 16.80,-4.80"/>
        <lane id=":J0_2_2" index="2" speed="11.49" length="30.37" shape="-1.60,20.00 0.06,12.88 4.36,5.87 10.28,0.53 16.80,-1.60"/>
    </edge>
    <edge id=":J0_5" function="internal">
        <lane id=":J0_5_0" index="0" speed="6.51" length="9.03" shape="16.80,14.40 14.35,14.75 12.60,15.80 11.55,17.55 11.20,20.00"/>
    </edge>
    <edge id=":J0_6" function="internal">
        <lane id=":J0_6_0" index="0" speed="13.89" length="36.80" shape="16.80,11.20 -20.00,11.20"/>
        <lane id=":J0_6_1" index="1" speed="13.89" length="36.80" shape="16.80,8.00 -20.00,8.00"/>
    </edge>
    <edge id=":J0_8" function="internal">
        <lane id=":J0_8_0" index="0" speed="13.58" length="42.86" shape="16.80,4.80 7.35,2.85 0.60,-3.00 -3.45,-12.75 -4.80,-26.40"/>
        <lane id=":J0_8_1" index="1" speed="12.76" length="37.73" shape="16.80,1.60 8.75,-0.15 3.00,-5.40 -0.45,-14.15 -1.60,-26.40"/>
    </edge>
    <edge id=":J0_10" function="internal">
        <lane id=":J0_10_0" index="0" speed="7.33" length="11.73" shape="11.20,-26.40 11.55,-22.55 12.60,-19.80 14.35,-18.15 16.80,-17.60"/>
    </edge>
    <edge id=":J0_11" function="internal">
        <lane id=":J0_11_0" index="0" speed="13.89" length="46.40" shape="8.00,-26.40 8.00,20.00"/>
    </edge>
    <edge id=":J0_12" function="internal">
        <lane id=":J0_12_0" index="0" speed="13.35" length="41.36" shape="4.80,-26.40 2.09,-17.78 -4.49,-7.47 -12.62,1.17 -20.00,4.80"/>
        <lane id=":J0_12_1" index="1" speed="12.64" length="36.97" shape="1.60,-26.40 -0.63,-18.28 -6.15,-9.07 -13.19,-1.53 -20.00,1.60"/>
    </edge>
    <edge id=":J0_14" function="internal">
        <lane id=":J0_14_0" index="0" speed="7.33" length="11.73" shape="-20.00,-17.60 -17.55,-18.15 -15.80,-19.80 -14.75,-22.55 -14.40,-26.40"/>
    </edge>
    <edge id=":J0_15" function="internal">
        <lane id=":J0_15_0" index="0" speed="13.89" length="36.80" shape="-20.00,-14.40 16.80,-14.40"/>
        <lane id=":J0_15_1" index="1" speed="13.89" length="36.80" shape="-20.00,-11.20 16.80,-11.20"/>
        <lane id=":J0_15_2" index="2" speed="13.89" length="36.80" shape="-20.00,-8.00 16.80,-8.00"/>
        <lane id=":J0_15_3" index="3" speed="13.89" length="36.80" shape="-20.00,-4.80 16.80,-4.80"/>
    </edge>
    <edge id=":J0_19" function="internal">
        <lane id=":J0_19_0" index="0" speed="12.28" length="34.84" shape="-20.00,-1.60 -10.55,-0.25 -3.80,3.80 0.25,10.55 1.60,20.00"/>
    </edge>

    <edge id="1I" from="J1" to="J0" priority="-1">
        <lane id="1I_0" index="0" speed="13.89" length="280.00" shape="-14.40,300.00 -14.40,20.00"/>
        <lane id="1I_1" index="1" speed="13.89" length="280.00" shape="-11.20,300.00 -11.20,20.00"/>
        <lane id="1I_2" index="2" speed="13.89" length="280.00" shape="-8.00,300.00 -8.00,20.00"/>
        <lane id="1I_3" index="3" speed="13.89" length="280.00" shape="-4.80,300.00 -4.80,20.00"/>
        <lane id="1I_4" index="4" speed="13.89" length="280.00" shape="-1.60,300.00 -1.60,20.00"/>
    </edge>
    <edge id="1O" from="J0" to="J1" priority="-1">
        <lane id="1O_0" index="0" speed="13.89" length="280.00" shape="11.20,20.00 11.20,300.00"/>
        <lane id="1O_1" index="1" speed="13.89" length="280.00" shape="8.00,20.00 8.00,300.00"/>
        <lane id="1O_2" index="2" speed="13.89" length="280.00" shape="4.80,20.00 4.80,300.00"/>
        <lane id="1O_3" index="3" speed="13.89" length="280.00" shape="1.60,20.00 1.60,300.00"/>
    </edge>
    <edge id="2I" from="J2" to="J0" priority="-1">
        <lane id="2I_0" index="0" speed="13.89" length="483.20" shape="500.00,14.40 16.80,14.40"/>
        <lane id="2I_1" index="1" speed="13.89" length="483.20" shape="500.00,11.20 16.80,11.20"/>
        <lane id="2I_2" index="2" speed="13.89" length="483.20" shape="500.00,8.00 16.80,8.00"/>
        <lane id="2I_3" index="3" speed="13.89" length="483.20" shape="500.00,4.80 16.80,4.80"/>
        <lane id="2I_4" index="4" speed="13.89" length="483.20" shape="500.00,1.60 16.80,1.60"/>
    </edge>
    <edge id="2O" from="J0" to="J2" priority="-1">
        <lane id="2O_0" index="0" speed="13.89" length="483.20" shape="16.80,-20.80 500.00,-20.80"/>
        <lane id="2O_1" index="1" speed="13.89" length="483.20" shape="16.80,-17.60 500.00,-17.60"/>
        <lane id="2O_2" index="2" speed="13.89" length="483.20" shape="16.80,-14.40 500.00,-14.40"/>
        <lane id="2O_3" index="3" speed="13.89" length="483.20" shape="16.80,-11.20 500.00,-11.20"/>
        <lane id="2O_4" index="4" speed="13.89" length="483.20" shape="16.80,-8.00 500.00,-8.00"/>
        <lane id="2O_5" index="5" speed="13.89" length="483.20" shape="16.80,-4.80 500.00,-4.80"/>
        <lane id="2O_6" index="6" speed="13.89" length="483.20" shape="16.80,-1.60 500.00,-1.60"/>
    </edge>
    <edge id="3I" from="J3" to="J0" priority="-1">
        <lane id="3I_0" index="0" speed="13.89" length="273.60" shape="11.20,-300.00 11.20,-26.40"/>
        <lane id="3I_1" index="1" speed="13.89" length="273.60" shape="8.00,-300.00 8.00,-26.40"/>
        <lane id="3I_2" index="2" speed="13.89" length="273.60" shape="4.80,-300.00 4.80,-26.40"/>
        <lane id="3I_3" index="3" speed="13.89" length="273.60" shape="1.60,-300.00 1.60,-26.40"/>
    </edge>
    <edge id="3O" from="J0" to="J3" priority="-1">
        <lane id="3O_0" index="0" speed="13.89" length="273.60" shape="-14.40,-26.40 -14.40,-300.00"/>
        <lane id="3O_1" index="1" speed="13.89" length="273.60" shape="-11.20,-26.40 -11.20,-300.00"/>
        <lane id="3O_2" index="2" speed="13.89" length="273.60" shape="-8.00,-26.40 -8.00,-300.00"/>
        <lane id="3O_3" index="3" speed="13.89" length="273.60" shape="-4.80,-26.40 -4.80,-300.00"/>
        <lane id="3O_4" index="4" speed="13.89" length="273.60" shape="-1.60,-26.40 -1.60,-300.00"/>
    </edge>
    <edge id="4I" from="J4" to="J0" priority="-1">
        <lane id="4I_0" index="0" speed="13.89" length="280.00" shape="-300.00,-17.60 -20.00,-17.60"/>
        <lane id="4I_1" index="1" speed="13.89" length="280.00" shape="-300.00,-14.40 -20.00,-14.40"/>
        <lane id="4I_2" index="2" speed="13.89" length="280.00" shape="-300.00,-11.20 -20.00,-11.20"/>
        <lane id="4I_3" index="3" speed="13.89" length="280.00" shape="-300.00,-8.00 -20.00,-8.00"/>
        <lane id="4I_4" index="4" speed="13.89" length="280.00" shape="-300.00,-4.80 -20.00,-4.80"/>
        <lane id="4I_5" index="5" speed="13.89" length="280.00" shape="-300.00,-1.60 -20.00,-1.60"/>
    </edge>
    <edge id="4O" from="J0" to="J4" priority="-1">
        <lane id="4O_0" index="0" speed="13.89" length="280.00" shape="-20.00,14.40 -300.00,14.40"/>
        <lane id="4O_1" index="1" speed="13.89" length="280.00" shape="-20.00,11.20 -300.00,11.20"/>
        <lane id="4O_2" index="2" speed="13.89" length="280.00" shape="-20.00,8.00 -300.00,8.00"/>
        <lane id="4O_3" index="3" speed="13.89" length="280.00" shape="-20.00,4.80 -300.00,4.80"/>
        <lane id="4O_4" index="4" speed="13.89" length="280.00" shape="-20.00,1.60 -300.00,1.60"/>
    </edge>

    <tlLogic id="J0" type="static" programID="0" offset="0">
        <phase duration="15" state="rrGGGGrrrrrrGGGrrrrr"/>
        <phase duration="3"  state="rrYYYYrrrrrrYYYrrrrr"/>
        <phase duration="15" state="GGrrrrrrrrGGrrrrrrrr"/>
        <phase duration="3"  state="GYrrrrrrrrGYrrrrrrrr"/>
        <phase duration="15" state="GrrrrrrrGGGrrrrrrrrG"/>
        <phase duration="3"  state="YrrrrrrrYYYrrrrrrrrY"/>
        <phase duration="15" state="rrrrrGGGrrrrrrGGGGGr"/>
        <phase duration="3"  state="rrrrrGYYrrrrrrGYYYYr"/>
    </tlLogic>

    <junction id="J0" type="traffic_light" x="0.00" y="0.00" incLanes="1I_0 1I_1 1I_2 1I_3 1I_4 2I_0 2I_1 2I_2 2I_3 2I_4 3I_0 3I_1 3I_2 3I_3 4I_0 4I_1 4I_2 4I_3 4I_4 4I_5" intLanes=":J0_0_0 :J0_1_0 :J0_2_0 :J0_2_1 :J0_2_2 :J0_5_0 :J0_6_0 :J0_6_1 :J0_8_0 :J0_8_1 :J0_10_0 :J0_11_0 :J0_12_0 :J0_12_1 :J0_14_0 :J0_15_0 :J0_15_1 :J0_15_2 :J0_15_3 :J0_19_0" shape="-16.00,20.00 12.80,20.00 13.24,17.78 13.80,17.00 14.58,16.44 15.58,16.11 16.80,16.00 16.80,-22.40 14.58,-22.84 13.80,-23.40 13.24,-24.18 12.91,-25.18 12.80,-26.40 -16.00,-26.40 -16.11,-24.20 -16.44,-22.40 -17.00,-21.00 -17.78,-20.00 -18.78,-19.40 -20.00,-19.20 -20.00,16.00 -17.78,16.44 -17.00,17.00 -16.44,17.78 -16.11,18.78" radius="4.00">
        <request index="0"  response="00000000000000000000" foes="00000000000000000000" cont="0"/>
        <request index="1"  response="11111000000011000000" foes="11111011000011000000" cont="0"/>
        <request index="2"  response="11111000101111000000" foes="11111000101111000000" cont="0"/>
        <request index="3"  response="11111000101111000000" foes="11111000101111000000" cont="0"/>
        <request index="4"  response="11111000101111000000" foes="11111000101111000000" cont="0"/>
        <request index="5"  response="00000000000000000000" foes="00000000000000000000" cont="0"/>
        <request index="6"  response="00000000000000000000" foes="10000000100000011110" cont="0"/>
        <request index="7"  response="00000000000000000000" foes="10000000100000011110" cont="0"/>
        <request index="8"  response="01111000000000000000" foes="01111011100000011100" cont="0"/>
        <request index="9"  response="01111000000000000000" foes="01111011100000011100" cont="0"/>
        <request index="10" response="00000000000000000000" foes="00000000000000000000" cont="0"/>
        <request index="11" response="01111000001111000000" foes="01111000001111011100" cont="0"/>
        <request index="12" response="11111000001100000010" foes="11111000001100000010" cont="0"/>
        <request index="13" response="11111000001100000010" foes="11111000001100000010" cont="0"/>
        <request index="14" response="00000000000000000000" foes="00000000000000000000" cont="0"/>
        <request index="15" response="00000000000000000000" foes="00000011101100011110" cont="0"/>
        <request index="16" response="00000000000000000000" foes="00000011101100011110" cont="0"/>
        <request index="17" response="00000000000000000000" foes="00000011101100011110" cont="0"/>
        <request index="18" response="00000000000000000000" foes="00000011101100011110" cont="0"/>
        <request index="19" response="00000000000011000000" foes="00000011000011011110" cont="0"/>
    </junction>
    <junction id="J1" type="dead_end" x="0.00" y="300.00" incLanes="1O_0 1O_1 1O_2 1O_3" intLanes="" shape="0.00,300.00 12.80,300.00 0.00,300.00"/>
    <junction id="J2" type="dead_end" x="500.00" y="0.00" incLanes="2O_0 2O_1 2O_2 2O_3 2O_4 2O_5 2O_6" intLanes="" shape="500.00,0.00 500.00,-22.40 500.00,0.00"/>
    <junction id="J3" type="dead_end" x="0.00" y="-300.00" incLanes="3O_0 3O_1 3O_2 3O_3 3O_4" intLanes="" shape="0.00,-300.00 -16.00,-300.00 0.00,-300.00"/>
    <junction id="J4" type="dead_end" x="-300.00" y="0.00" incLanes="4O_0 4O_1 4O_2 4O_3 4O_4" intLanes="" shape="-300.00,0.00 -300.00,16.00 -300.00,0.00" radius="4.00"/>

    <connection from="1I" to="4O" fromLane="0" toLane="0" via=":J0_0_0" tl="J0" linkIndex="0" dir="r" state="O"/>
    <connection from="1I" to="3O" fromLane="1" toLane="1" via=":J0_1_0" tl="J0" linkIndex="1" dir="s" state="o"/>
    <connection from="1I" to="2O" fromLane="2" toLane="4" via=":J0_2_0" tl="J0" linkIndex="2" dir="l" state="o"/>
    <connection from="1I" to="2O" fromLane="3" toLane="5" via=":J0_2_1" tl="J0" linkIndex="3" dir="l" state="o"/>
    <connection from="1I" to="2O" fromLane="4" toLane="6" via=":J0_2_2" tl="J0" linkIndex="4" dir="l" state="o"/>
    <connection from="2I" to="1O" fromLane="0" toLane="0" via=":J0_5_0" tl="J0" linkIndex="5" dir="r" state="O"/>
    <connection from="2I" to="4O" fromLane="1" toLane="1" via=":J0_6_0" tl="J0" linkIndex="6" dir="s" state="O"/>
    <connection from="2I" to="4O" fromLane="2" toLane="2" via=":J0_6_1" tl="J0" linkIndex="7" dir="s" state="O"/>
    <connection from="2I" to="3O" fromLane="3" toLane="3" via=":J0_8_0" tl="J0" linkIndex="8" dir="l" state="o"/>
    <connection from="2I" to="3O" fromLane="4" toLane="4" via=":J0_8_1" tl="J0" linkIndex="9" dir="l" state="o"/>
    <connection from="3I" to="2O" fromLane="0" toLane="1" via=":J0_10_0" tl="J0" linkIndex="10" dir="r" state="O"/>
    <connection from="3I" to="1O" fromLane="1" toLane="1" via=":J0_11_0" tl="J0" linkIndex="11" dir="s" state="o"/>
    <connection from="3I" to="4O" fromLane="2" toLane="3" via=":J0_12_0" tl="J0" linkIndex="12" dir="l" state="o"/>
    <connection from="3I" to="4O" fromLane="3" toLane="4" via=":J0_12_1" tl="J0" linkIndex="13" dir="l" state="o"/>
    <connection from="4I" to="3O" fromLane="0" toLane="0" via=":J0_14_0" tl="J0" linkIndex="14" dir="r" state="O"/>
    <connection from="4I" to="2O" fromLane="1" toLane="2" via=":J0_15_0" tl="J0" linkIndex="15" dir="s" state="O"/>
    <connection from="4I" to="2O" fromLane="2" toLane="3" via=":J0_15_1" tl="J0" linkIndex="16" dir="s" state="O"/>
    <connection from="4I" to="2O" fromLane="3" toLane="4" via=":J0_15_2" tl="J0" linkIndex="17" dir="s" state="O"/>
    <connection from="4I" to="2O" fromLane="4" toLane="5" via=":J0_15_3" tl="J0" linkIndex="18" dir="s" state="O"/>
    <connection from="4I" to="1O" fromLane="5" toLane="3" via=":J0_19_0" tl="J0" linkIndex="19" dir="l" state="o"/>

    <connection from=":J0_0" to="4O" fromLane="0" toLane="0" dir="r" state="M"/>
    <connection from=":J0_1" to="3O" fromLane="0" toLane="1" dir="s" state="M"/>
    <connection from=":J0_2" to="2O" fromLane="0" toLane="4" dir="l" state="M"/>
    <connection from=":J0_2" to="2O" fromLane="1" toLane="5" dir="l" state="M"/>
    <connection from=":J0_2" to="2O" fromLane="2" toLane="6" dir="l" state="M"/>
    <connection from=":J0_5" to="1O" fromLane="0" toLane="0" dir="r" state="M"/>
    <connection from=":J0_6" to="4O" fromLane="0" toLane="1" dir="s" state="M"/>
    <connection from=":J0_6" to="4O" fromLane="1" toLane="2" dir="s" state="M"/>
    <connection from=":J0_8" to="3O" fromLane="0" toLane="3" dir="l" state="M"/>
    <connection from=":J0_8" to="3O" fromLane="1" toLane="4" dir="l" state="M"/>
    <connection from=":J0_10" to="2O" fromLane="0" toLane="1" dir="r" state="M"/>
    <connection from=":J0_11" to="1O" fromLane="0" toLane="1" dir="s" state="M"/>
    <connection from=":J0_12" to="4O" fromLane="0" toLane="3" dir="l" state="M"/>
    <connection from=":J0_12" to="4O" fromLane="1" toLane="4" dir="l" state="M"/>
    <connection from=":J0_14" to="3O" fromLane="0" toLane="0" dir="r" state="M"/>
    <connection from=":J0_15" to="2O" fromLane="0" toLane="2" dir="s" state="M"/>
    <connection from=":J0_15" to="2O" fromLane="1" toLane="3" dir="s" state="M"/>
    <connection from=":J0_15" to="2O" fromLane="2" toLane="4" dir="s" state="M"/>
    <connection from=":J0_15" to="2O" fromLane="3" toLane="5" dir="s" state="M"/>
    <connection from=":J0_19" to="1O" fromLane="0" toLane="3" dir="l" state="M"/>

</net>
