<?xml version="1.0" encoding="UTF-8"?>

<!-- generated on 2024-10-31 20:46:15 by Eclipse SUMO netedit Version 1.18.0
<configuration xmlns:xsi="http://www.w3.org/2001/XMLSchema-instance" xsi:noNamespaceSchemaLocation="http://sumo.dlr.de/xsd/neteditConfiguration.xsd">

    <input>
        <sumo-net-file value="C:\Users\master\OneDrive - postech.ac.kr\SO_DNN\network\I3.net.xml"/>
    </input>

    <output>
        <output-file value="C:\Users\master\OneDrive - postech.ac.kr\SO_DNN\network\I3.net.xml"/>
    </output>

    <processing>
        <geometry.min-radius.fix.railways value="false"/>
        <geometry.max-grade.fix value="false"/>
        <offset.disable-normalization value="true"/>
        <lefthand value="0"/>
    </processing>

    <junctions>
        <no-turnarounds value="true"/>
        <junctions.corner-detail value="5"/>
        <junctions.limit-turn-speed value="5.50"/>
        <rectangular-lane-cut value="0"/>
    </junctions>

    <pedestrian>
        <walkingareas value="0"/>
    </pedestrian>

</configuration>
-->

<net version="1.16" junctionCornerDetail="5" limitTurnSpeed="5.50" xmlns:xsi="http://www.w3.org/2001/XMLSchema-instance" xsi:noNamespaceSchemaLocation="http://sumo.dlr.de/xsd/net_file.xsd">

    <location netOffset="0.00,0.00" convBoundary="0.00,-300.00,800.00,300.00" origBoundary="-10000000000.00,-10000000000.00,10000000000.00,10000000000.00" projParameter="!"/>

    <edge id=":J0_0" function="internal">
        <lane id=":J0_0_0" index="0" speed="7.33" length="11.73" shape="492.00,20.00 491.65,16.15 490.60,13.40 488.85,11.75 486.40,11.20"/>
    </edge>
    <edge id=":J0_1" function="internal">
        <lane id=":J0_1_0" index="0" speed="13.89" length="46.40" shape="495.20,20.00 495.20,-26.40"/>
    </edge>
    <edge id=":J0_2" function="internal">
        <lane id=":J0_2_0" index="0" speed="11.84" length="32.30" shape="498.40,20.00 499.55,10.55 503.00,3.80 508.75,-0.25 516.80,-1.60"/>
    </edge>
    <edge id=":J0_3" function="internal">
        <lane id=":J0_3_0" index="0" speed="7.33" length="11.73" shape="516.80,11.20 514.35,11.75 512.60,13.40 511.55,16.15 511.20,20.00"/>
    </edge>
    <edge id=":J0_4" function="internal">
        <lane id=":J0_4_0" index="0" speed="13.89" length="30.40" shape="516.80,8.00 486.40,8.00"/>
        <lane id=":J0_4_1" index="1" speed="13.89" length="30.40" shape="516.80,4.80 486.40,4.80"/>
    </edge>
    <edge id=":J0_6" function="internal">
        <lane id=":J0_6_0" index="0" speed="12.76" length="37.73" shape="516.80,1.60 508.75,-0.15 503.00,-5.40 499.55,-14.15 498.40,-26.40"/>
    </edge>
    <edge id=":J0_7" function="internal">
        <lane id=":J0_7_0" index="0" speed="6.51" length="9.03" shape="511.20,-26.40 511.55,-23.95 512.60,-22.20 514.35,-21.15 516.80,-20.80"/>
        <lane id=":J0_7_1" index="1" speed="8.00" length="14.19" shape="508.00,-26.40 508.55,-22.55 510.20,-19.80 512.95,-18.15 516.80,-17.60"/>
    </edge>
    <edge id=":J0_9" function="internal">
        <lane id=":J0_9_0" index="0" speed="13.89" length="46.40" shape="504.80,-26.40 504.80,20.00"/>
    </edge>
    <edge id=":J0_10" function="internal">
        <lane id=":J0_10_0" index="0" speed="12.38" length="35.45" shape="501.60,-26.40 500.65,-14.15 497.80,-5.40 493.05,-0.15 486.40,1.60"/>
    </edge>
    <edge id=":J0_11" function="internal">
        <lane id=":J0_11_0" index="0" speed="6.51" length="9.03" shape="486.40,-20.80 488.85,-21.15 490.60,-22.20 491.65,-23.95 492.00,-26.40"/>
    </edge>
    <edge id=":J0_12" function="internal">
        <lane id=":J0_12_0" index="0" speed="13.89" length="30.40" shape="486.40,-17.60 516.80,-17.60"/>
        <lane id=":J0_12_1" index="1" speed="13.89" length="30.40" shape="486.40,-14.40 516.80,-14.40"/>
        <lane id=":J0_12_2" index="2" speed="13.89" length="30.40" shape="486.40,-11.20 516.80,-11.20"/>
        <lane id=":J0_12_3" index="3" speed="13.89" length="30.40" shape="486.40,-8.00 516.80,-8.00"/>
        <lane id=":J0_12_4" index="4" speed="13.89" length="30.40" shape="486.40,-4.80 516.80,-4.80"/>
    </edge>
    <edge id=":J0_17" function="internal">
        <lane id=":J0_17_0" index="0" speed="11.39" length="29.85" shape="486.40,-1.60 493.05,-0.25 497.80,3.80 500.65,10.55 501.60,20.00"/>
    </edge>

    <edge id="1I" from="J1" to="J0" priority="-1">
        <lane id="1I_0" index="0" speed="13.89" length="280.00" shape="492.00,300.00 492.00,20.00"/>
        <lane id="1I_1" index="1" speed="13.89" length="280.00" shape="495.20,300.00 495.20,20.00"/>
        <lane id="1I_2" index="2" speed="13.89" length="280.00" shape="498.40,300.00 498.40,20.00"/>
    </edge>
    <edge id="1O" from="J0" to="J1" priority="-1">
        <lane id="1O_0" index="0" speed="13.89" length="280.00" shape="511.20,20.00 511.20,300.00"/>
        <lane id="1O_1" index="1" speed="13.89" length="280.00" shape="508.00,20.00 508.00,300.00"/>
        <lane id="1O_2" index="2" speed="13.89" length="280.00" shape="504.80,20.00 504.80,300.00"/>
        <lane id="1O_3" index="3" speed="13.89" length="280.00" shape="501.60,20.00 501.60,300.00"/>
    </edge>
    <edge id="2I" from="J2" to="J0" priority="-1">
        <lane id="2I_0" index="0" speed="13.89" length="283.20" shape="800.00,11.20 516.80,11.20"/>
        <lane id="2I_1" index="1" speed="13.89" length="283.20" shape="800.00,8.00 516.80,8.00"/>
        <lane id="2I_2" index="2" speed="13.89" length="283.20" shape="800.00,4.80 516.80,4.80"/>
        <lane id="2I_3" index="3" speed="13.89" length="283.20" shape="800.00,1.60 516.80,1.60"/>
    </edge>
    <edge id="2O" from="J0" to="J2" priority="-1">
        <lane id="2O_0" index="0" speed="13.89" length="283.20" shape="516.80,-20.80 800.00,-20.80"/>
        <lane id="2O_1" index="1" speed="13.89" length="283.20" shape="516.80,-17.60 800.00,-17.60"/>
        <lane id="2O_2" index="2" speed="13.89" length="283.20" shape="516.80,-14.40 800.00,-14.40"/>
        <lane id="2O_3" index="3" speed="13.89" length="283.20" shape="516.80,-11.20 800.00,-11.20"/>
        <lane id="2O_4" index="4" speed="13.89" length="283.20" shape="516.80,-8.00 800.00,-8.00"/>
        <lane id="2O_5" index="5" speed="13.89" length="283.20" shape="516.80,-4.80 800.00,-4.80"/>
        <lane id="2O_6" index="6" speed="13.89" length="283.20" shape="516.80,-1.60 800.00,-1.60"/>
    </edge>
    <edge id="3I" from="J3" to="J0" priority="-1">
        <lane id="3I_0" index="0" speed="13.89" length="273.60" shape="511.20,-300.00 511.20,-26.40"/>
        <lane id="3I_1" index="1" speed="13.89" length="273.60" shape="508.00,-300.00 508.00,-26.40"/>
        <lane id="3I_2" index="2" speed="13.89" length="273.60" shape="504.80,-300.00 504.80,-26.40"/>
        <lane id="3I_3" index="3" speed="13.89" length="273.60" shape="501.60,-300.00 501.60,-26.40"/>
    </edge>
    <edge id="3O" from="J0" to="J3" priority="-1">
        <lane id="3O_0" index="0" speed="13.89" length="273.60" shape="492.00,-26.40 492.00,-300.00"/>
        <lane id="3O_1" index="1" speed="13.89" length="273.60" shape="495.20,-26.40 495.20,-300.00"/>
        <lane id="3O_2" index="2" speed="13.89" length="273.60" shape="498.40,-26.40 498.40,-300.00"/>
    </edge>
    <edge id="4I" from="J4" to="J0" priority="-1">
        <lane id="4I_0" index="0" speed="13.89" length="486.40" shape="0.00,-20.80 486.40,-20.80"/>
        <lane id="4I_1" index="1" speed="13.89" length="486.40" shape="0.00,-17.60 486.40,-17.60"/>
        <lane id="4I_2" index="2" speed="13.89" length="486.40" shape="0.00,-14.40 486.40,-14.40"/>
        <lane id="4I_3" index="3" speed="13.89" length="486.40" shape="0.00,-11.20 486.40,-11.20"/>
        <lane id="4I_4" index="4" speed="13.89" length="486.40" shape="0.00,-8.00 486.40,-8.00"/>
        <lane id="4I_5" index="5" speed="13.89" length="486.40" shape="0.00,-4.80 486.40,-4.80"/>
        <lane id="4I_6" index="6" speed="13.89" length="486.40" shape="0.00,-1.60 486.40,-1.60"/>
    </edge>
    <edge id="4O" from="J0" to="J4" priority="-1">
        <lane id="4O_0" index="0" speed="13.89" length="486.40" shape="486.40,14.40 0.00,14.40"/>
        <lane id="4O_1" index="1" speed="13.89" length="486.40" shape="486.40,11.20 0.00,11.20"/>
        <lane id="4O_2" index="2" speed="13.89" length="486.40" shape="486.40,8.00 0.00,8.00"/>
        <lane id="4O_3" index="3" speed="13.89" length="486.40" shape="486.40,4.80 0.00,4.80"/>
        <lane id="4O_4" index="4" speed="13.89" length="486.40" shape="486.40,1.60 0.00,1.60"/>
    </edge>

    <tlLogic id="J0" type="static" programID="0" offset="0">
        <phase duration="15" state="rrGGrrrrrrGGrrrrrr"/>
        <phase duration="3"  state="rrYYrrrrrrYYrrrrrr"/>
        <phase duration="15" state="GGrrrrrGGGrrrrrrrr"/>
        <phase duration="3"  state="GYrrrrrGGYrrrrrrrr"/>
        <phase duration="15" state="GrrrrrGGGrrrrrrrrG"/>
        <phase duration="3"  state="YrrrrrYYYrrrrrrrrY"/>
        <phase duration="15" state="rrrGGGrrrrrGGGGGGr"/>
        <phase duration="3"  state="rrrGYYrrrrrGYYYYYr"/>
    </tlLogic>

    <junction id="J0" type="traffic_light" x="500.00" y="0.00" incLanes="1I_0 1I_1 1I_2 2I_0 2I_1 2I_2 2I_3 3I_0 3I_1 3I_2 3I_3 4I_0 4I_1 4I_2 4I_3 4I_4 4I_5 4I_6" intLanes=":J0_0_0 :J0_1_0 :J0_2_0 :J0_3_0 :J0_4_0 :J0_4_1 :J0_6_0 :J0_7_0 :J0_7_1 :J0_9_0 :J0_10_0 :J0_11_0 :J0_12_0 :J0_12_1 :J0_12_2 :J0_12_3 :J0_12_4 :J0_17_0" shape="490.40,20.00 512.80,20.00 512.91,17.80 513.24,16.00 513.80,14.60 514.58,13.60 515.58,13.00 516.80,12.80 516.80,-22.40 514.58,-22.84 513.80,-23.40 513.24,-24.18 512.91,-25.18 512.80,-26.40 490.40,-26.40 489.96,-24.18 489.40,-23.40 488.62,-22.84 487.62,-22.51 486.40,-22.40 486.40,16.00 488.62,16.44 489.40,17.00 489.96,17.78 490.29,18.78">
        <request index="0"  response="000000000000000000" foes="000000000000000000" cont="0"/>
        <request index="1"  response="111111000000110000" foes="111111010000110000" cont="0"/>
        <request index="2"  response="100000001001110000" foes="100000001001110000" cont="0"/>
        <request index="3"  response="000000000000000000" foes="000000000000000000" cont="0"/>
        <request index="4"  response="000000000000000000" foes="100000001000000110" cont="0"/>
        <request index="5"  response="000000000000000000" foes="100000001000000110" cont="0"/>
        <request index="6"  response="011111000000000000" foes="011111011000000100" cont="0"/>
        <request index="7"  response="011111000000000000" foes="011111000000000000" cont="0"/>
        <request index="8"  response="011111000000000000" foes="011111000000000000" cont="0"/>
        <request index="9"  response="011111000001110000" foes="011111000001110100" cont="0"/>
        <request index="10" response="111111000001000010" foes="111111000001000010" cont="0"/>
        <request index="11" response="000000000000000000" foes="000000000000000000" cont="0"/>
        <request index="12" response="000000000000000000" foes="000000011111000010" cont="0"/>
        <request index="13" response="000000000000000000" foes="000000011111000010" cont="0"/>
        <request index="14" response="000000000000000000" foes="000000011111000010" cont="0"/>
        <request index="15" response="000000000000000000" foes="000000011111000010" cont="0"/>
        <request index="16" response="000000000000000000" foes="000000011111000010" cont="0"/>
        <request index="17" response="000000000000110000" foes="000000010000110110" cont="0"/>
    </junction>
    <junction id="J1" type="dead_end" x="500.00" y="300.00" incLanes="1O_0 1O_1 1O_2 1O_3" intLanes="" shape="500.00,300.00 512.80,300.00 500.00,300.00"/>
    <junction id="J2" type="dead_end" x="800.00" y="0.00" incLanes="2O_0 2O_1 2O_2 2O_3 2O_4 2O_5 2O_6" intLanes="" shape="800.00,0.00 800.00,-22.40 800.00,0.00"/>
    <junction id="J3" type="dead_end" x="500.00" y="-300.00" incLanes="3O_0 3O_1 3O_2" intLanes="" shape="500.00,-300.00 490.40,-300.00 500.00,-300.00"/>
    <junction id="J4" type="dead_end" x="0.00" y="0.00" incLanes="4O_0 4O_1 4O_2 4O_3 4O_4" intLanes="" shape="0.00,0.00 0.00,16.00 0.00,0.00" radius="4.00"/>

    <connection from="1I" to="4O" fromLane="0" toLane="1" via=":J0_0_0" tl="J0" linkIndex="0" dir="r" state="O"/>
    <connection from="1I" to="3O" fromLane="1" toLane="1" via=":J0_1_0" tl="J0" linkIndex="1" dir="s" state="o"/>
    <connection from="1I" to="2O" fromLane="2" toLane="6" via=":J0_2_0" tl="J0" linkIndex="2" dir="l" state="o"/>
    <connection from="2I" to="1O" fromLane="0" toLane="0" via=":J0_3_0" tl="J0" linkIndex="3" dir="r" state="O"/>
    <connection from="2I" to="4O" fromLane="1" toLane="2" via=":J0_4_0" tl="J0" linkIndex="4" dir="s" state="O"/>
    <connection from="2I" to="4O" fromLane="2" toLane="3" via=":J0_4_1" tl="J0" linkIndex="5" dir="s" state="O"/>
    <connection from="2I" to="3O" fromLane="3" toLane="2" via=":J0_6_0" tl="J0" linkIndex="6" dir="l" state="o"/>
    <connection from="3I" to="2O" fromLane="0" toLane="0" via=":J0_7_0" tl="J0" linkIndex="7" dir="r" state="o"/>
    <connection from="3I" to="2O" fromLane="1" toLane="1" via=":J0_7_1" tl="J0" linkIndex="8" dir="r" state="o"/>
    <connection from="3I" to="1O" fromLane="2" toLane="2" via=":J0_9_0" tl="J0" linkIndex="9" dir="s" state="o"/>
    <connection from="3I" to="4O" fromLane="3" toLane="4" via=":J0_10_0" tl="J0" linkIndex="10" dir="l" state="o"/>
    <connection from="4I" to="3O" fromLane="0" toLane="0" via=":J0_11_0" tl="J0" linkIndex="11" dir="r" state="O"/>
    <connection from="4I" to="2O" fromLane="1" toLane="1" via=":J0_12_0" tl="J0" linkIndex="12" dir="s" state="O"/>
    <connection from="4I" to="2O" fromLane="2" toLane="2" via=":J0_12_1" tl="J0" linkIndex="13" dir="s" state="O"/>
    <connection from="4I" to="2O" fromLane="3" toLane="3" via=":J0_12_2" tl="J0" linkIndex="14" dir="s" state="O"/>
    <connection from="4I" to="2O" fromLane="4" toLane="4" via=":J0_12_3" tl="J0" linkIndex="15" dir="s" state="O"/>
    <connection from="4I" to="2O" fromLane="5" toLane="5" via=":J0_12_4" tl="J0" linkIndex="16" dir="s" state="O"/>
    <connection from="4I" to="1O" fromLane="6" toLane="3" via=":J0_17_0" tl="J0" linkIndex="17" dir="l" state="o"/>

    <connection from=":J0_0" to="4O" fromLane="0" toLane="1" dir="r" state="M"/>
    <connection from=":J0_1" to="3O" fromLane="0" toLane="1" dir="s" state="M"/>
    <connection from=":J0_2" to="2O" fromLane="0" toLane="6" dir="l" state="M"/>
    <connection from=":J0_3" to="1O" fromLane="0" toLane="0" dir="r" state="M"/>
    <connection from=":J0_4" to="4O" fromLane="0" toLane="2" dir="s" state="M"/>
    <connection from=":J0_4" to="4O" fromLane="1" toLane="3" dir="s" state="M"/>
    <connection from=":J0_6" to="3O" fromLane="0" toLane="2" dir="l" state="M"/>
    <connection from=":J0_7" to="2O" fromLane="0" toLane="0" dir="r" state="M"/>
    <connection from=":J0_7" to="2O" fromLane="1" toLane="1" dir="r" state="M"/>
    <connection from=":J0_9" to="1O" fromLane="0" toLane="2" dir="s" state="M"/>
    <connection from=":J0_10" to="4O" fromLane="0" toLane="4" dir="l" state="M"/>
    <connection from=":J0_11" to="3O" fromLane="0" toLane="0" dir="r" state="M"/>
    <connection from=":J0_12" to="2O" fromLane="0" toLane="1" dir="s" state="M"/>
    <connection from=":J0_12" to="2O" fromLane="1" toLane="2" dir="s" state="M"/>
    <connection from=":J0_12" to="2O" fromLane="2" toLane="3" dir="s" state="M"/>
    <connection from=":J0_12" to="2O" fromLane="3" toLane="4" dir="s" state="M"/>
    <connection from=":J0_12" to="2O" fromLane="4" toLane="5" dir="s" state="M"/>
    <connection from=":J0_17" to="1O" fromLane="0" toLane="3" dir="l" state="M"/>

</net>
