<?xml version="1.0" encoding="UTF-8"?>

<!-- generated on 2024-10-31 22:01:34 by Eclipse SUMO netedit Version 1.12.0
<configuration xmlns:xsi="http://www.w3.org/2001/XMLSchema-instance" xsi:noNamespaceSchemaLocation="http://sumo.dlr.de/xsd/netconvertConfiguration.xsd">

    <input>
        <sumo-net-file value="C:\Users\master\OneDrive%20-%20postech.ac.kr\SO_DNN\network\multiple_intersections.net.xml"/>
    </input>

    <output>
        <output-file value="C:\Users\master\OneDrive%20-%20postech.ac.kr\SO_DNN\network\multiple_intersections.net.xml"/>
    </output>

    <processing>
        <geometry.min-radius.fix.railways value="false"/>
        <geometry.max-grade.fix value="false"/>
        <offset.disable-normalization value="true"/>
        <lefthand value="false"/>
    </processing>

    <junctions>
        <no-turnarounds value="true"/>
        <junctions.corner-detail value="5"/>
        <junctions.limit-turn-speed value="5.5"/>
        <rectangular-lane-cut value="false"/>
    </junctions>

    <pedestrian>
        <walkingareas value="false"/>
    </pedestrian>

    <report>
        <aggregate-warnings value="5"/>
    </report>

</configuration>
-->

<net version="1.9" junctionCornerDetail="5" limitTurnSpeed="5.50" xmlns:xsi="http://www.w3.org/2001/XMLSchema-instance" xsi:noNamespaceSchemaLocation="http://sumo.dlr.de/xsd/net_file.xsd">

    <location netOffset="0.00,0.00" convBoundary="-600.00,-300.00,800.00,300.00" origBoundary="-10000000000.00,-10000000000.00,10000000000.00,10000000000.00" projParameter="!"/>

    <edge id=":I1_0" function="internal">
        <lane id=":I1_0_0" index="0" speed="6.51" length="9.03" shape="-308.00,20.00 -308.35,17.55 -309.40,15.80 -311.15,14.75 -313.60,14.40"/>
    </edge>
    <edge id=":I1_1" function="internal">
        <lane id=":I1_1_0" index="0" speed="13.89" length="43.20" shape="-304.80,20.00 -304.80,-23.20"/>
    </edge>
    <edge id=":I1_2" function="internal">
        <lane id=":I1_2_0" index="0" speed="11.84" length="32.30" shape="-301.60,20.00 -300.45,10.55 -297.00,3.80 -291.25,-0.25 -283.20,-1.60"/>
    </edge>
    <edge id=":I1_3" function="internal">
        <lane id=":I1_3_0" index="0" speed="6.51" length="9.03" shape="-283.20,14.40 -285.65,14.75 -287.40,15.80 -288.45,17.55 -288.80,20.00"/>
    </edge>
    <edge id=":I1_4" function="internal">
        <lane id=":I1_4_0" index="0" speed="13.89" length="30.40" shape="-283.20,11.20 -313.60,11.20"/>
        <lane id=":I1_4_1" index="1" speed="13.89" length="30.40" shape="-283.20,8.00 -313.60,8.00"/>
        <lane id=":I1_4_2" index="2" speed="13.89" length="30.40" shape="-283.20,4.80 -313.60,4.80"/>
    </edge>
    <edge id=":I1_7" function="internal">
        <lane id=":I1_7_0" index="0" speed="12.30" length="34.99" shape="-283.20,1.60 -291.25,0.05 -297.00,-4.60 -300.45,-12.35 -301.60,-23.20"/>
    </edge>
    <edge id=":I1_8" function="internal">
        <lane id=":I1_8_0" index="0" speed="6.51" length="9.03" shape="-288.80,-23.20 -288.45,-20.75 -287.40,-19.00 -285.65,-17.95 -283.20,-17.60"/>
    </edge>
    <edge id=":I1_9" function="internal">
        <lane id=":I1_9_0" index="0" speed="13.89" length="43.20" shape="-292.00,-23.20 -292.00,20.00"/>
    </edge>
    <edge id=":I1_10" function="internal">
        <lane id=":I1_10_0" index="0" speed="12.76" length="37.73" shape="-295.20,-23.20 -296.35,-10.95 -299.80,-2.20 -305.55,3.05 -313.60,4.80"/>
        <lane id=":I1_10_1" index="1" speed="11.89" length="32.62" shape="-298.40,-23.20 -299.35,-12.35 -302.20,-4.60 -306.95,0.05 -313.60,1.60"/>
    </edge>
    <edge id=":I1_12" function="internal">
        <lane id=":I1_12_0" index="0" speed="6.51" length="9.03" shape="-313.60,-17.60 -311.15,-17.95 -309.40,-19.00 -308.35,-20.75 -308.00,-23.20"/>
    </edge>
    <edge id=":I1_13" function="internal">
        <lane id=":I1_13_0" index="0" speed="13.89" length="30.40" shape="-313.60,-14.40 -283.20,-14.40"/>
        <lane id=":I1_13_1" index="1" speed="13.89" length="30.40" shape="-313.60,-11.20 -283.20,-11.20"/>
        <lane id=":I1_13_2" index="2" speed="13.89" length="30.40" shape="-313.60,-8.00 -283.20,-8.00"/>
        <lane id=":I1_13_3" index="3" speed="13.89" length="30.40" shape="-313.60,-4.80 -283.20,-4.80"/>
    </edge>
    <edge id=":I1_17" function="internal">
        <lane id=":I1_17_0" index="0" speed="11.39" length="29.85" shape="-313.60,-1.60 -306.95,-0.25 -302.20,3.80 -299.35,10.55 -298.40,20.00"/>
    </edge>
    <edge id=":I2_0" function="internal">
        <lane id=":I2_0_0" index="0" speed="6.51" length="9.03" shape="-14.40,20.00 -14.75,17.55 -15.80,15.80 -17.55,14.75 -20.00,14.40"/>
    </edge>
    <edge id=":I2_1" function="internal">
        <lane id=":I2_1_0" index="0" speed="13.89" length="46.40" shape="-11.20,20.00 -11.20,-26.40"/>
    </edge>
    <edge id=":I2_2" function="internal">
        <lane id=":I2_2_0" index="0" speed="12.98" length="39.08" shape="-8.00,20.00 -5.37,11.87 1.08,2.67 9.20,-4.88 16.80,-8.00"/>
        <lane id=":I2_2_1" index="1" speed="12.26" length="34.71" shape="-4.80,20.00 -2.66,12.37 2.72,4.27 9.73,-2.18 16.80,-4.80"/>
        <lane id=":I2_2_2" index="2" speed="11.49" length="30.37" shape="-1.60,20.00 0.06,12.87 4.36,5.87 10.28,0.52 16.80,-1.60"/>
    </edge>
    <edge id=":I2_5" function="internal">
        <lane id=":I2_5_0" index="0" speed="6.51" length="9.03" shape="16.80,14.40 14.35,14.75 12.60,15.80 11.55,17.55 11.20,20.00"/>
    </edge>
    <edge id=":I2_6" function="internal">
        <lane id=":I2_6_0" index="0" speed="13.89" length="36.80" shape="16.80,11.20 -20.00,11.20"/>
        <lane id=":I2_6_1" index="1" speed="13.89" length="36.80" shape="16.80,8.00 -20.00,8.00"/>
    </edge>
    <edge id=":I2_8" function="internal">
        <lane id=":I2_8_0" index="0" speed="13.58" length="42.86" shape="16.80,4.80 7.35,2.85 0.60,-3.00 -3.45,-12.75 -4.80,-26.40"/>
        <lane id=":I2_8_1" index="1" speed="12.76" length="37.73" shape="16.80,1.60 8.75,-0.15 3.00,-5.40 -0.45,-14.15 -1.60,-26.40"/>
    </edge>
    <edge id=":I2_10" function="internal">
        <lane id=":I2_10_0" index="0" speed="7.33" length="11.73" shape="11.20,-26.40 11.55,-22.55 12.60,-19.80 14.35,-18.15 16.80,-17.60"/>
    </edge>
    <edge id=":I2_11" function="internal">
        <lane id=":I2_11_0" index="0" speed="13.89" length="46.40" shape="8.00,-26.40 8.00,20.00"/>
    </edge>
    <edge id=":I2_12" function="internal">
        <lane id=":I2_12_0" index="0" speed="13.35" length="41.36" shape="4.80,-26.40 2.09,-17.77 -4.49,-7.47 -12.62,1.18 -20.00,4.80"/>
        <lane id=":I2_12_1" index="1" speed="12.64" length="36.97" shape="1.60,-26.40 -0.63,-18.27 -6.15,-9.07 -13.19,-1.52 -20.00,1.60"/>
    </edge>
    <edge id=":I2_14" function="internal">
        <lane id=":I2_14_0" index="0" speed="7.33" length="11.73" shape="-20.00,-17.60 -17.55,-18.15 -15.80,-19.80 -14.75,-22.55 -14.40,-26.40"/>
    </edge>
    <edge id=":I2_15" function="internal">
        <lane id=":I2_15_0" index="0" speed="13.89" length="36.80" shape="-20.00,-14.40 16.80,-14.40"/>
        <lane id=":I2_15_1" index="1" speed="13.89" length="36.80" shape="-20.00,-11.20 16.80,-11.20"/>
        <lane id=":I2_15_2" index="2" speed="13.89" length="36.80" shape="-20.00,-8.00 16.80,-8.00"/>
        <lane id=":I2_15_3" index="3" speed="13.89" length="36.80" shape="-20.00,-4.80 16.80,-4.80"/>
    </edge>
    <edge id=":I2_19" function="internal">
        <lane id=":I2_19_0" index="0" speed="12.28" length="34.84" shape="-20.00,-1.60 -10.55,-0.25 -3.80,3.80 0.25,10.55 1.60,20.00"/>
    </edge>
    <edge id=":I3_0" function="internal">
        <lane id=":I3_0_0" index="0" speed="7.33" length="11.73" shape="492.00,20.00 491.65,16.15 490.60,13.40 488.85,11.75 486.40,11.20"/>
    </edge>
    <edge id=":I3_1" function="internal">
        <lane id=":I3_1_0" index="0" speed="13.89" length="46.40" shape="495.20,20.00 495.20,-26.40"/>
    </edge>
    <edge id=":I3_2" function="internal">
        <lane id=":I3_2_0" index="0" speed="11.84" length="32.30" shape="498.40,20.00 499.55,10.55 503.00,3.80 508.75,-0.25 516.80,-1.60"/>
    </edge>
    <edge id=":I3_3" function="internal">
        <lane id=":I3_3_0" index="0" speed="7.33" length="11.73" shape="516.80,11.20 514.35,11.75 512.60,13.40 511.55,16.15 511.20,20.00"/>
    </edge>
    <edge id=":I3_4" function="internal">
        <lane id=":I3_4_0" index="0" speed="13.89" length="30.40" shape="516.80,8.00 486.40,8.00"/>
        <lane id=":I3_4_1" index="1" speed="13.89" length="30.40" shape="516.80,4.80 486.40,4.80"/>
    </edge>
    <edge id=":I3_6" function="internal">
        <lane id=":I3_6_0" index="0" speed="12.76" length="37.73" shape="516.80,1.60 508.75,-0.15 503.00,-5.40 499.55,-14.15 498.40,-26.40"/>
    </edge>
    <edge id=":I3_7" function="internal">
        <lane id=":I3_7_0" index="0" speed="6.51" length="9.03" shape="511.20,-26.40 511.55,-23.95 512.60,-22.20 514.35,-21.15 516.80,-20.80"/>
        <lane id=":I3_7_1" index="1" speed="8.00" length="14.19" shape="508.00,-26.40 508.55,-22.55 510.20,-19.80 512.95,-18.15 516.80,-17.60"/>
    </edge>
    <edge id=":I3_9" function="internal">
        <lane id=":I3_9_0" index="0" speed="13.89" length="46.40" shape="504.80,-26.40 504.80,20.00"/>
    </edge>
    <edge id=":I3_10" function="internal">
        <lane id=":I3_10_0" index="0" speed="12.38" length="35.45" shape="501.60,-26.40 500.65,-14.15 497.80,-5.40 493.05,-0.15 486.40,1.60"/>
    </edge>
    <edge id=":I3_11" function="internal">
        <lane id=":I3_11_0" index="0" speed="6.51" length="9.03" shape="486.40,-20.80 488.85,-21.15 490.60,-22.20 491.65,-23.95 492.00,-26.40"/>
    </edge>
    <edge id=":I3_12" function="internal">
        <lane id=":I3_12_0" index="0" speed="13.89" length="30.40" shape="486.40,-17.60 516.80,-17.60"/>
        <lane id=":I3_12_1" index="1" speed="13.89" length="30.40" shape="486.40,-14.40 516.80,-14.40"/>
        <lane id=":I3_12_2" index="2" speed="13.89" length="30.40" shape="486.40,-11.20 516.80,-11.20"/>
        <lane id=":I3_12_3" index="3" speed="13.89" length="30.40" shape="486.40,-8.00 516.80,-8.00"/>
        <lane id=":I3_12_4" index="4" speed="13.89" length="30.40" shape="486.40,-4.80 516.80,-4.80"/>
    </edge>
    <edge id=":I3_17" function="internal">
        <lane id=":I3_17_0" index="0" speed="11.39" length="29.85" shape="486.40,-1.60 493.05,-0.25 497.80,3.80 500.65,10.55 501.60,20.00"/>
    </edge>

    <edge id="1I" from="J1" to="I1" priority="-1">
        <lane id="1I_0" index="0" speed="13.89" length="280.00" shape="-308.00,300.00 -308.00,20.00"/>
        <lane id="1I_1" index="1" speed="13.89" length="280.00" shape="-304.80,300.00 -304.80,20.00"/>
        <lane id="1I_2" index="2" speed="13.89" length="280.00" shape="-301.60,300.00 -301.60,20.00"/>
    </edge>
    <edge id="1O" from="I1" to="J1" priority="-1">
        <lane id="1O_0" index="0" speed="13.89" length="280.00" shape="-288.80,20.00 -288.80,300.00"/>
        <lane id="1O_1" index="1" speed="13.89" length="280.00" shape="-292.00,20.00 -292.00,300.00"/>
        <lane id="1O_2" index="2" speed="13.89" length="280.00" shape="-295.20,20.00 -295.20,300.00"/>
        <lane id="1O_3" index="3" speed="13.89" length="280.00" shape="-298.40,20.00 -298.40,300.00"/>
    </edge>
    <edge id="2I" from="J2" to="I2" priority="-1">
        <lane id="2I_0" index="0" speed="13.89" length="280.00" shape="-14.40,300.00 -14.40,20.00"/>
        <lane id="2I_1" index="1" speed="13.89" length="280.00" shape="-11.20,300.00 -11.20,20.00"/>
        <lane id="2I_2" index="2" speed="13.89" length="280.00" shape="-8.00,300.00 -8.00,20.00"/>
        <lane id="2I_3" index="3" speed="13.89" length="280.00" shape="-4.80,300.00 -4.80,20.00"/>
        <lane id="2I_4" index="4" speed="13.89" length="280.00" shape="-1.60,300.00 -1.60,20.00"/>
    </edge>
    <edge id="2O" from="I2" to="J2" priority="-1">
        <lane id="2O_0" index="0" speed="13.89" length="280.00" shape="11.20,20.00 11.20,300.00"/>
        <lane id="2O_1" index="1" speed="13.89" length="280.00" shape="8.00,20.00 8.00,300.00"/>
        <lane id="2O_2" index="2" speed="13.89" length="280.00" shape="4.80,20.00 4.80,300.00"/>
        <lane id="2O_3" index="3" speed="13.89" length="280.00" shape="1.60,20.00 1.60,300.00"/>
    </edge>
    <edge id="3I" from="J3" to="I3" priority="-1">
        <lane id="3I_0" index="0" speed="13.89" length="280.00" shape="492.00,300.00 492.00,20.00"/>
        <lane id="3I_1" index="1" speed="13.89" length="280.00" shape="495.20,300.00 495.20,20.00"/>
        <lane id="3I_2" index="2" speed="13.89" length="280.00" shape="498.40,300.00 498.40,20.00"/>
    </edge>
    <edge id="3O" from="I3" to="J3" priority="-1">
        <lane id="3O_0" index="0" speed="13.89" length="280.00" shape="511.20,20.00 511.20,300.00"/>
        <lane id="3O_1" index="1" speed="13.89" length="280.00" shape="508.00,20.00 508.00,300.00"/>
        <lane id="3O_2" index="2" speed="13.89" length="280.00" shape="504.80,20.00 504.80,300.00"/>
        <lane id="3O_3" index="3" speed="13.89" length="280.00" shape="501.60,20.00 501.60,300.00"/>
    </edge>
    <edge id="4I" from="J4" to="I3" priority="-1">
        <lane id="4I_0" index="0" speed="13.89" length="283.20" shape="800.00,11.20 516.80,11.20"/>
        <lane id="4I_1" index="1" speed="13.89" length="283.20" shape="800.00,8.00 516.80,8.00"/>
        <lane id="4I_2" index="2" speed="13.89" length="283.20" shape="800.00,4.80 516.80,4.80"/>
        <lane id="4I_3" index="3" speed="13.89" length="283.20" shape="800.00,1.60 516.80,1.60"/>
    </edge>
    <edge id="4O" from="I3" to="J4" priority="-1">
        <lane id="4O_0" index="0" speed="13.89" length="283.20" shape="516.80,-20.80 800.00,-20.80"/>
        <lane id="4O_1" index="1" speed="13.89" length="283.20" shape="516.80,-17.60 800.00,-17.60"/>
        <lane id="4O_2" index="2" speed="13.89" length="283.20" shape="516.80,-14.40 800.00,-14.40"/>
        <lane id="4O_3" index="3" speed="13.89" length="283.20" shape="516.80,-11.20 800.00,-11.20"/>
        <lane id="4O_4" index="4" speed="13.89" length="283.20" shape="516.80,-8.00 800.00,-8.00"/>
        <lane id="4O_5" index="5" speed="13.89" length="283.20" shape="516.80,-4.80 800.00,-4.80"/>
        <lane id="4O_6" index="6" speed="13.89" length="283.20" shape="516.80,-1.60 800.00,-1.60"/>
    </edge>
    <edge id="5I" from="J5" to="I3" priority="-1">
        <lane id="5I_0" index="0" speed="13.89" length="273.60" shape="511.20,-300.00 511.20,-26.40"/>
        <lane id="5I_1" index="1" speed="13.89" length="273.60" shape="508.00,-300.00 508.00,-26.40"/>
        <lane id="5I_2" index="2" speed="13.89" length="273.60" shape="504.80,-300.00 504.80,-26.40"/>
        <lane id="5I_3" index="3" speed="13.89" length="273.60" shape="501.60,-300.00 501.60,-26.40"/>
    </edge>
    <edge id="5O" from="I3" to="J5" priority="-1">
        <lane id="5O_0" index="0" speed="13.89" length="273.60" shape="492.00,-26.40 492.00,-300.00"/>
        <lane id="5O_1" index="1" speed="13.89" length="273.60" shape="495.20,-26.40 495.20,-300.00"/>
        <lane id="5O_2" index="2" speed="13.89" length="273.60" shape="498.40,-26.40 498.40,-300.00"/>
    </edge>
    <edge id="6I" from="J6" to="I2" priority="-1">
        <lane id="6I_0" index="0" speed="13.89" length="273.60" shape="11.20,-300.00 11.20,-26.40"/>
        <lane id="6I_1" index="1" speed="13.89" length="273.60" shape="8.00,-300.00 8.00,-26.40"/>
        <lane id="6I_2" index="2" speed="13.89" length="273.60" shape="4.80,-300.00 4.80,-26.40"/>
        <lane id="6I_3" index="3" speed="13.89" length="273.60" shape="1.60,-300.00 1.60,-26.40"/>
    </edge>
    <edge id="6O" from="I2" to="J6" priority="-1">
        <lane id="6O_0" index="0" speed="13.89" length="273.60" shape="-14.40,-26.40 -14.40,-300.00"/>
        <lane id="6O_1" index="1" speed="13.89" length="273.60" shape="-11.20,-26.40 -11.20,-300.00"/>
        <lane id="6O_2" index="2" speed="13.89" length="273.60" shape="-8.00,-26.40 -8.00,-300.00"/>
        <lane id="6O_3" index="3" speed="13.89" length="273.60" shape="-4.80,-26.40 -4.80,-300.00"/>
        <lane id="6O_4" index="4" speed="13.89" length="273.60" shape="-1.60,-26.40 -1.60,-300.00"/>
    </edge>
    <edge id="7I" from="J7" to="I1" priority="-1">
        <lane id="7I_0" index="0" speed="13.89" length="276.80" shape="-288.80,-300.00 -288.80,-23.20"/>
        <lane id="7I_1" index="1" speed="13.89" length="276.80" shape="-292.00,-300.00 -292.00,-23.20"/>
        <lane id="7I_2" index="2" speed="13.89" length="276.80" shape="-295.20,-300.00 -295.20,-23.20"/>
        <lane id="7I_3" index="3" speed="13.89" length="276.80" shape="-298.40,-300.00 -298.40,-23.20"/>
    </edge>
    <edge id="7O" from="I1" to="J7" priority="-1">
        <lane id="7O_0" index="0" speed="13.89" length="276.80" shape="-308.00,-23.20 -308.00,-300.00"/>
        <lane id="7O_1" index="1" speed="13.89" length="276.80" shape="-304.80,-23.20 -304.80,-300.00"/>
        <lane id="7O_2" index="2" speed="13.89" length="276.80" shape="-301.60,-23.20 -301.60,-300.00"/>
    </edge>
    <edge id="8I" from="J8" to="I1" priority="-1">
        <lane id="8I_0" index="0" speed="13.89" length="286.40" shape="-600.00,-17.60 -313.60,-17.60"/>
        <lane id="8I_1" index="1" speed="13.89" length="286.40" shape="-600.00,-14.40 -313.60,-14.40"/>
        <lane id="8I_2" index="2" speed="13.89" length="286.40" shape="-600.00,-11.20 -313.60,-11.20"/>
        <lane id="8I_3" index="3" speed="13.89" length="286.40" shape="-600.00,-8.00 -313.60,-8.00"/>
        <lane id="8I_4" index="4" speed="13.89" length="286.40" shape="-600.00,-4.80 -313.60,-4.80"/>
        <lane id="8I_5" index="5" speed="13.89" length="286.40" shape="-600.00,-1.60 -313.60,-1.60"/>
    </edge>
    <edge id="8O" from="I1" to="J8" priority="-1">
        <lane id="8O_0" index="0" speed="13.89" length="286.40" shape="-313.60,14.40 -600.00,14.40"/>
        <lane id="8O_1" index="1" speed="13.89" length="286.40" shape="-313.60,11.20 -600.00,11.20"/>
        <lane id="8O_2" index="2" speed="13.89" length="286.40" shape="-313.60,8.00 -600.00,8.00"/>
        <lane id="8O_3" index="3" speed="13.89" length="286.40" shape="-313.60,4.80 -600.00,4.80"/>
        <lane id="8O_4" index="4" speed="13.89" length="286.40" shape="-313.60,1.60 -600.00,1.60"/>
    </edge>
    <edge id="EI12" from="I1" to="I2" priority="-1">
        <lane id="EI12_0" index="0" speed="13.89" length="263.20" shape="-283.20,-17.60 -20.00,-17.60"/>
        <lane id="EI12_1" index="1" speed="13.89" length="263.20" shape="-283.20,-14.40 -20.00,-14.40"/>
        <lane id="EI12_2" index="2" speed="13.89" length="263.20" shape="-283.20,-11.20 -20.00,-11.20"/>
        <lane id="EI12_3" index="3" speed="13.89" length="263.20" shape="-283.20,-8.00 -20.00,-8.00"/>
        <lane id="EI12_4" index="4" speed="13.89" length="263.20" shape="-283.20,-4.80 -20.00,-4.80"/>
        <lane id="EI12_5" index="5" speed="13.89" length="263.20" shape="-283.20,-1.60 -20.00,-1.60"/>
    </edge>
    <edge id="EI21" from="I2" to="I1" priority="-1">
        <lane id="EI21_0" index="0" speed="13.89" length="263.20" shape="-20.00,14.40 -283.20,14.40"/>
        <lane id="EI21_1" index="1" speed="13.89" length="263.20" shape="-20.00,11.20 -283.20,11.20"/>
        <lane id="EI21_2" index="2" speed="13.89" length="263.20" shape="-20.00,8.00 -283.20,8.00"/>
        <lane id="EI21_3" index="3" speed="13.89" length="263.20" shape="-20.00,4.80 -283.20,4.80"/>
        <lane id="EI21_4" index="4" speed="13.89" length="263.20" shape="-20.00,1.60 -283.20,1.60"/>
    </edge>
    <edge id="EI23" from="I2" to="I3" priority="-1">
        <lane id="EI23_0" index="0" speed="13.89" length="469.60" shape="16.80,-20.80 486.40,-20.80"/>
        <lane id="EI23_1" index="1" speed="13.89" length="469.60" shape="16.80,-17.60 486.40,-17.60"/>
        <lane id="EI23_2" index="2" speed="13.89" length="469.60" shape="16.80,-14.40 486.40,-14.40"/>
        <lane id="EI23_3" index="3" speed="13.89" length="469.60" shape="16.80,-11.20 486.40,-11.20"/>
        <lane id="EI23_4" index="4" speed="13.89" length="469.60" shape="16.80,-8.00 486.40,-8.00"/>
        <lane id="EI23_5" index="5" speed="13.89" length="469.60" shape="16.80,-4.80 486.40,-4.80"/>
        <lane id="EI23_6" index="6" speed="13.89" length="469.60" shape="16.80,-1.60 486.40,-1.60"/>
    </edge>
    <edge id="EI32" from="I3" to="I2" priority="-1">
        <lane id="EI32_0" index="0" speed="13.89" length="469.60" shape="486.40,14.40 16.80,14.40"/>
        <lane id="EI32_1" index="1" speed="13.89" length="469.60" shape="486.40,11.20 16.80,11.20"/>
        <lane id="EI32_2" index="2" speed="13.89" length="469.60" shape="486.40,8.00 16.80,8.00"/>
        <lane id="EI32_3" index="3" speed="13.89" length="469.60" shape="486.40,4.80 16.80,4.80"/>
        <lane id="EI32_4" index="4" speed="13.89" length="469.60" shape="486.40,1.60 16.80,1.60"/>
    </edge>

    <tlLogic id="I1" type="static" programID="0" offset="0">
        <phase duration="15" state="rrGGrrrrrrGGGrrrrr"/>
        <phase duration="3"  state="rrYYrrrrrrYYYrrrrr"/>
        <phase duration="15" state="GGrrrrrrGGrrrrrrrr"/>
        <phase duration="3"  state="GYrrrrrrGYrrrrrrrr"/>
        <phase duration="15" state="GrrrrrrGGrrrrrrrrG"/>
        <phase duration="3"  state="YrrrrrrYYrrrrrrrrY"/>
        <phase duration="15" state="rrrGGGGrrrrrGGGGGr"/>
        <phase duration="3"  state="rrrGYYYrrrrrGYYYYr"/>
    </tlLogic>
    <tlLogic id="I2" type="static" programID="0" offset="0">
        <phase duration="15" state="rrGGGGrrrrrrGGGrrrrr"/>
        <phase duration="3"  state="rrYYYYrrrrrrYYYrrrrr"/>
        <phase duration="15" state="GGrrrrrrrrGGrrrrrrrr"/>
        <phase duration="3"  state="GYrrrrrrrrGYrrrrrrrr"/>
        <phase duration="15" state="GrrrrrrrGGGrrrrrrrrG"/>
        <phase duration="3"  state="YrrrrrrrYYYrrrrrrrrY"/>
        <phase duration="15" state="rrrrrGGGrrrrrrGGGGGr"/>
        <phase duration="3"  state="rrrrrGYYrrrrrrGYYYYr"/>
    </tlLogic>
    <tlLogic id="I3" type="static" programID="0" offset="0">
        <phase duration="15" state="rrGGrrrrrrGGrrrrrr"/>
        <phase duration="3"  state="rrYYrrrrrrYYrrrrrr"/>
        <phase duration="15" state="GGrrrrrGGGrrrrrrrr"/>
        <phase duration="3"  state="GYrrrrrGGYrrrrrrrr"/>
        <phase duration="15" state="GrrrrrGGGrrrrrrrrG"/>
        <phase duration="3"  state="YrrrrrYYYrrrrrrrrY"/>
        <phase duration="15" state="rrrGGGrrrrrGGGGGGr"/>
        <phase duration="3"  state="rrrGYYrrrrrGYYYYYr"/>
    </tlLogic>

    <junction id="I1" type="traffic_light" x="-300.00" y="0.00" incLanes="1I_0 1I_1 1I_2 EI21_0 EI21_1 EI21_2 EI21_3 EI21_4 7I_0 7I_1 7I_2 7I_3 8I_0 8I_1 8I_2 8I_3 8I_4 8I_5" intLanes=":I1_0_0 :I1_1_0 :I1_2_0 :I1_3_0 :I1_4_0 :I1_4_1 :I1_4_2 :I1_7_0 :I1_8_0 :I1_9_0 :I1_10_0 :I1_10_1 :I1_12_0 :I1_13_0 :I1_13_1 :I1_13_2 :I1_13_3 :I1_17_0" shape="-309.60,20.00 -287.20,20.00 -286.76,17.78 -286.20,17.00 -285.42,16.44 -284.42,16.11 -283.20,16.00 -283.20,-19.20 -285.42,-19.64 -286.20,-20.20 -286.76,-20.98 -287.09,-21.98 -287.20,-23.20 -309.60,-23.20 -310.04,-20.98 -310.60,-20.20 -311.38,-19.64 -312.38,-19.31 -313.60,-19.20 -313.60,16.00 -311.38,16.44 -310.60,17.00 -310.04,17.78 -309.71,18.78" radius="4.00">
        <request index="0"  response="000000000000000000" foes="000000000000000000" cont="0"/>
        <request index="1"  response="111110000001110000" foes="111110110001110000" cont="0"/>
        <request index="2"  response="100000001011110000" foes="100000001011110000" cont="0"/>
        <request index="3"  response="000000000000000000" foes="000000000000000000" cont="0"/>
        <request index="4"  response="000000000000000000" foes="100000111000000110" cont="0"/>
        <request index="5"  response="000000000000000000" foes="100000111000000110" cont="0"/>
        <request index="6"  response="000000000000000000" foes="100000111000000110" cont="0"/>
        <request index="7"  response="011110000000000000" foes="011110111000000100" cont="0"/>
        <request index="8"  response="000000000000000000" foes="000000000000000000" cont="0"/>
        <request index="9"  response="011110000011110000" foes="011110000011110100" cont="0"/>
        <request index="10" response="111110000011110010" foes="111110000011110010" cont="0"/>
        <request index="11" response="111110000011110010" foes="111110000011110010" cont="0"/>
        <request index="12" response="000000000000000000" foes="000000000000000000" cont="0"/>
        <request index="13" response="000000000000000000" foes="000000111010000010" cont="0"/>
        <request index="14" response="000000000000000000" foes="000000111010000010" cont="0"/>
        <request index="15" response="000000000000000000" foes="000000111010000010" cont="0"/>
        <request index="16" response="000000000000000000" foes="000000111010000010" cont="0"/>
        <request index="17" response="000000000001110000" foes="000000110001110110" cont="0"/>
    </junction>
    <junction id="I2" type="traffic_light" x="0.00" y="0.00" incLanes="2I_0 2I_1 2I_2 2I_3 2I_4 EI32_0 EI32_1 EI32_2 EI32_3 EI32_4 6I_0 6I_1 6I_2 6I_3 EI12_0 EI12_1 EI12_2 EI12_3 EI12_4 EI12_5" intLanes=":I2_0_0 :I2_1_0 :I2_2_0 :I2_2_1 :I2_2_2 :I2_5_0 :I2_6_0 :I2_6_1 :I2_8_0 :I2_8_1 :I2_10_0 :I2_11_0 :I2_12_0 :I2_12_1 :I2_14_0 :I2_15_0 :I2_15_1 :I2_15_2 :I2_15_3 :I2_19_0" shape="-16.00,20.00 12.80,20.00 13.24,17.78 13.80,17.00 14.58,16.44 15.58,16.11 16.80,16.00 16.80,-22.40 14.58,-22.84 13.80,-23.40 13.24,-24.18 12.91,-25.18 12.80,-26.40 -16.00,-26.40 -16.11,-24.20 -16.44,-22.40 -17.00,-21.00 -17.78,-20.00 -18.78,-19.40 -20.00,-19.20 -20.00,16.00 -17.78,16.44 -17.00,17.00 -16.44,17.78 -16.11,18.78" radius="4.00">
        <request index="0"  response="00000000000000000000" foes="00000000000000000000" cont="0"/>
        <request index="1"  response="11111000000011000000" foes="11111011000011000000" cont="0"/>
        <request index="2"  response="11111000101111000000" foes="11111000101111000000" cont="0"/>
        <request index="3"  response="11111000101111000000" foes="11111000101111000000" cont="0"/>
        <request index="4"  response="11111000101111000000" foes="11111000101111000000" cont="0"/>
        <request index="5"  response="00000000000000000000" foes="00000000000000000000" cont="0"/>
        <request index="6"  response="00000000000000000000" foes="10000000100000011110" cont="0"/>
        <request index="7"  response="00000000000000000000" foes="10000000100000011110" cont="0"/>
        <request index="8"  response="01111000000000000000" foes="01111011100000011100" cont="0"/>
        <request index="9"  response="01111000000000000000" foes="01111011100000011100" cont="0"/>
        <request index="10" response="00000000000000000000" foes="00000000000000000000" cont="0"/>
        <request index="11" response="01111000001111000000" foes="01111000001111011100" cont="0"/>
        <request index="12" response="11111000001100000010" foes="11111000001100000010" cont="0"/>
        <request index="13" response="11111000001100000010" foes="11111000001100000010" cont="0"/>
        <request index="14" response="00000000000000000000" foes="00000000000000000000" cont="0"/>
        <request index="15" response="00000000000000000000" foes="00000011101100011110" cont="0"/>
        <request index="16" response="00000000000000000000" foes="00000011101100011110" cont="0"/>
        <request index="17" response="00000000000000000000" foes="00000011101100011110" cont="0"/>
        <request index="18" response="00000000000000000000" foes="00000011101100011110" cont="0"/>
        <request index="19" response="00000000000011000000" foes="00000011000011011110" cont="0"/>
    </junction>
    <junction id="I3" type="traffic_light" x="500.00" y="0.00" incLanes="3I_0 3I_1 3I_2 4I_0 4I_1 4I_2 4I_3 5I_0 5I_1 5I_2 5I_3 EI23_0 EI23_1 EI23_2 EI23_3 EI23_4 EI23_5 EI23_6" intLanes=":I3_0_0 :I3_1_0 :I3_2_0 :I3_3_0 :I3_4_0 :I3_4_1 :I3_6_0 :I3_7_0 :I3_7_1 :I3_9_0 :I3_10_0 :I3_11_0 :I3_12_0 :I3_12_1 :I3_12_2 :I3_12_3 :I3_12_4 :I3_17_0" shape="490.40,20.00 512.80,20.00 512.91,17.80 513.24,16.00 513.80,14.60 514.58,13.60 515.58,13.00 516.80,12.80 516.80,-22.40 514.58,-22.84 513.80,-23.40 513.24,-24.18 512.91,-25.18 512.80,-26.40 490.40,-26.40 489.96,-24.18 489.40,-23.40 488.62,-22.84 487.62,-22.51 486.40,-22.40 486.40,16.00 488.62,16.44 489.40,17.00 489.96,17.78 490.29,18.78">
        <request index="0"  response="000000000000000000" foes="000000000000000000" cont="0"/>
        <request index="1"  response="111111000000110000" foes="111111010000110000" cont="0"/>
        <request index="2"  response="100000001001110000" foes="100000001001110000" cont="0"/>
        <request index="3"  response="000000000000000000" foes="000000000000000000" cont="0"/>
        <request index="4"  response="000000000000000000" foes="100000001000000110" cont="0"/>
        <request index="5"  response="000000000000000000" foes="100000001000000110" cont="0"/>
        <request index="6"  response="011111000000000000" foes="011111011000000100" cont="0"/>
        <request index="7"  response="011111000000000000" foes="011111000000000000" cont="0"/>
        <request index="8"  response="011111000000000000" foes="011111000000000000" cont="0"/>
        <request index="9"  response="011111000001110000" foes="011111000001110100" cont="0"/>
        <request index="10" response="111111000001000010" foes="111111000001000010" cont="0"/>
        <request index="11" response="000000000000000000" foes="000000000000000000" cont="0"/>
        <request index="12" response="000000000000000000" foes="000000011111000010" cont="0"/>
        <request index="13" response="000000000000000000" foes="000000011111000010" cont="0"/>
        <request index="14" response="000000000000000000" foes="000000011111000010" cont="0"/>
        <request index="15" response="000000000000000000" foes="000000011111000010" cont="0"/>