<?xml version="1.0" encoding="UTF-8"?>

<!-- generated on 2022-04-07 14:06:27 by Eclipse SUMO netconvert Version 1.9.2
<configuration xmlns:xsi="http://www.w3.org/2001/XMLSchema-instance" xsi:noNamespaceSchemaLocation="http://sumo.dlr.de/xsd/netconvertConfiguration.xsd">

    <input>
        <node-files value="network/inputs/input.nod.xml"/>
        <edge-files value="network/inputs/input_6_7_5_4.edg.xml"/>
        <connection-files value="network/inputs/input_rrslll_rrssssl_rsssl_rsll.con.xml"/>
        <tllogic-files value="network/inputs/input_rrslll_rrssssl_rsssl_rsll.tll.xml"/>
    </input>

    <output>
        <output-file value="network/rrslll_rrssssl_rsssl_rsll.net.xml"/>
    </output>

    <report>
        <no-warnings value="true"/>
        <aggregate-warnings value="5"/>
        <log value="network/log/rrslll_rrssssl_rsssl_rsll.log.xml"/>
    </report>

</configuration>
-->

<net version="1.9" junctionCornerDetail="5" limitTurnSpeed="5.50" xmlns:xsi="http://www.w3.org/2001/XMLSchema-instance" xsi:noNamespaceSchemaLocation="http://sumo.dlr.de/xsd/net_file.xsd">

    <location netOffset="300.00,300.00" convBoundary="0.00,0.00,600.00,600.00" origBoundary="-300.00,-300.00,300.00,300.00" projParameter="!"/>

    <edge id=":J0_0" function="internal">
        <lane id=":J0_0_0" index="0" speed="6.51" length="9.03" shape="282.40,326.40 282.05,323.95 281.00,322.20 279.25,321.15 276.80,320.80"/>
        <lane id=":J0_0_1" index="1" speed="8.00" length="14.19" shape="285.60,326.40 285.05,322.55 283.40,319.80 280.65,318.15 276.80,317.60"/>
    </edge>
    <edge id=":J0_2" function="internal">
        <lane id=":J0_2_0" index="0" speed="13.89" length="43.20" shape="288.80,326.40 288.80,283.20"/>
    </edge>
    <edge id=":J0_3" function="internal">
        <lane id=":J0_3_0" index="0" speed="13.89" length="50.42" shape="292.00,326.40 293.75,311.35 299.00,300.60 307.75,294.15 320.00,292.00"/>
        <lane id=":J0_3_1" index="1" speed="13.89" length="45.27" shape="295.20,326.40 296.75,312.75 301.40,303.00 309.15,297.15 320.00,295.20"/>
        <lane id=":J0_3_2" index="2" speed="13.15" length="40.13" shape="298.40,326.40 299.75,314.15 303.80,305.40 310.55,300.15 320.00,298.40"/>
    </edge>
    <edge id=":J0_6" function="internal">
        <lane id=":J0_6_0" index="0" speed="6.51" length="9.03" shape="320.00,320.80 317.55,321.15 315.80,322.20 314.75,323.95 314.40,326.40"/>
        <lane id=":J0_6_1" index="1" speed="8.00" length="14.19" shape="320.00,317.60 316.15,318.15 313.40,319.80 311.75,322.55 311.20,326.40"/>
    </edge>
    <edge id=":J0_8" function="internal">
        <lane id=":J0_8_0" index="0" speed="13.89" length="43.20" shape="320.00,314.40 276.80,314.40"/>
        <lane id=":J0_8_1" index="1" speed="13.89" length="43.20" shape="320.00,311.20 276.80,311.20"/>
        <lane id=":J0_8_2" index="2" speed="13.89" length="43.20" shape="320.00,308.00 276.80,308.00"/>
        <lane id=":J0_8_3" index="3" speed="13.89" length="43.20" shape="320.00,304.80 276.80,304.80"/>
    </edge>
    <edge id=":J0_12" function="internal">
        <lane id=":J0_12_0" index="0" speed="11.84" length="32.30" shape="320.00,301.60 310.55,300.45 303.80,297.00 299.75,291.25 298.40,283.20"/>
    </edge>
    <edge id=":J0_13" function="internal">
        <lane id=":J0_13_0" index="0" speed="6.51" length="9.03" shape="314.40,283.20 314.75,285.65 315.80,287.40 317.55,288.45 320.00,288.80"/>
    </edge>
    <edge id=":J0_14" function="internal">
        <lane id=":J0_14_0" index="0" speed="13.89" length="43.20" shape="311.20,283.20 311.20,326.40"/>
        <lane id=":J0_14_1" index="1" speed="13.89" length="43.20" shape="308.00,283.20 308.00,326.40"/>
        <lane id=":J0_14_2" index="2" speed="13.89" length="43.20" shape="304.80,283.20 304.80,326.40"/>
    </edge>
    <edge id=":J0_17" function="internal">
        <lane id=":J0_17_0" index="0" speed="12.30" length="34.99" shape="301.60,283.20 300.05,291.25 295.40,297.00 287.65,300.45 276.80,301.60"/>
    </edge>
    <edge id=":J0_18" function="internal">
        <lane id=":J0_18_0" index="0" speed="6.51" length="9.03" shape="276.80,288.80 279.25,288.45 281.00,287.40 282.05,285.65 282.40,283.20"/>
    </edge>
    <edge id=":J0_19" function="internal">
        <lane id=":J0_19_0" index="0" speed="13.89" length="43.20" shape="276.80,292.00 320.00,292.00"/>
    </edge>
    <edge id=":J0_20" function="internal">
        <lane id=":J0_20_0" index="0" speed="13.89" length="47.77" shape="276.80,295.20 289.05,297.15 297.80,303.00 303.05,312.75 304.80,326.40"/>
        <lane id=":J0_20_1" index="1" speed="13.54" length="42.61" shape="276.80,298.40 287.65,300.15 295.40,305.40 300.05,314.15 301.60,326.40"/>
    </edge>
    <edge id=":J1_0" function="internal">
        <lane id=":J1_0_0" index="0" speed="3.65" length="4.67" shape="301.60,600.00 300.80,601.20 300.00,601.60 299.20,601.20 298.40,600.00"/>
    </edge>
    <edge id=":J2_0" function="internal">
        <lane id=":J2_0_0" index="0" speed="3.65" length="4.67" shape="600.00,298.40 601.20,299.20 601.60,300.00 601.20,300.80 600.00,301.60"/>
    </edge>
    <edge id=":J3_0" function="internal">
        <lane id=":J3_0_0" index="0" speed="3.65" length="4.67" shape="298.40,0.00 299.20,-1.20 300.00,-1.60 300.80,-1.20 301.60,0.00"/>
    </edge>
    <edge id=":J4_0" function="internal">
        <lane id=":J4_0_0" index="0" speed="3.65" length="4.67" shape="0.00,301.60 -1.20,300.80 -1.60,300.00 -1.20,299.20 0.00,298.40"/>
    </edge>

    <edge id="1I" from="J1" to="J0" priority="-1">
        <lane id="1I_0" index="0" speed="13.89" length="273.60" shape="282.40,600.00 282.40,326.40"/>
        <lane id="1I_1" index="1" speed="13.89" length="273.60" shape="285.60,600.00 285.60,326.40"/>
        <lane id="1I_2" index="2" speed="13.89" length="273.60" shape="288.80,600.00 288.80,326.40"/>
        <lane id="1I_3" index="3" speed="13.89" length="273.60" shape="292.00,600.00 292.00,326.40"/>
        <lane id="1I_4" index="4" speed="13.89" length="273.60" shape="295.20,600.00 295.20,326.40"/>
        <lane id="1I_5" index="5" speed="13.89" length="273.60" shape="298.40,600.00 298.40,326.40"/>
    </edge>
    <edge id="1O" from="J0" to="J1" priority="-1">
        <lane id="1O_0" index="0" speed="13.89" length="273.60" shape="314.40,326.40 314.40,600.00"/>
        <lane id="1O_1" index="1" speed="13.89" length="273.60" shape="311.20,326.40 311.20,600.00"/>
        <lane id="1O_2" index="2" speed="13.89" length="273.60" shape="308.00,326.40 308.00,600.00"/>
        <lane id="1O_3" index="3" speed="13.89" length="273.60" shape="304.80,326.40 304.80,600.00"/>
        <lane id="1O_4" index="4" speed="13.89" length="273.60" shape="301.60,326.40 301.60,600.00"/>
    </edge>
    <edge id="2I" from="J2" to="J0" priority="-1">
        <lane id="2I_0" index="0" speed="13.89" length="280.00" shape="600.00,320.80 320.00,320.80"/>
        <lane id="2I_1" index="1" speed="13.89" length="280.00" shape="600.00,317.60 320.00,317.60"/>
        <lane id="2I_2" index="2" speed="13.89" length="280.00" shape="600.00,314.40 320.00,314.40"/>
        <lane id="2I_3" index="3" speed="13.89" length="280.00" shape="600.00,311.20 320.00,311.20"/>
        <lane id="2I_4" index="4" speed="13.89" length="280.00" shape="600.00,308.00 320.00,308.00"/>
        <lane id="2I_5" index="5" speed="13.89" length="280.00" shape="600.00,304.80 320.00,304.80"/>
        <lane id="2I_6" index="6" speed="13.89" length="280.00" shape="600.00,301.60 320.00,301.60"/>
    </edge>
    <edge id="2O" from="J0" to="J2" priority="-1">
        <lane id="2O_0" index="0" speed="13.89" length="280.00" shape="320.00,288.80 600.00,288.80"/>
        <lane id="2O_1" index="1" speed="13.89" length="280.00" shape="320.00,292.00 600.00,292.00"/>
        <lane id="2O_2" index="2" speed="13.89" length="280.00" shape="320.00,295.20 600.00,295.20"/>
        <lane id="2O_3" index="3" speed="13.89" length="280.00" shape="320.00,298.40 600.00,298.40"/>
    </edge>
    <edge id="3I" from="J3" to="J0" priority="-1">
        <lane id="3I_0" index="0" speed="13.89" length="283.20" shape="314.40,0.00 314.40,283.20"/>
        <lane id="3I_1" index="1" speed="13.89" length="283.20" shape="311.20,0.00 311.20,283.20"/>
        <lane id="3I_2" index="2" speed="13.89" length="283.20" shape="308.00,0.00 308.00,283.20"/>
        <lane id="3I_3" index="3" speed="13.89" length="283.20" shape="304.80,0.00 304.80,283.20"/>
        <lane id="3I_4" index="4" speed="13.89" length="283.20" shape="301.60,0.00 301.60,283.20"/>
    </edge>
    <edge id="3O" from="J0" to="J3" priority="-1">
        <lane id="3O_0" index="0" speed="13.89" length="283.20" shape="282.40,283.20 282.40,0.00"/>
        <lane id="3O_1" index="1" speed="13.89" length="283.20" shape="285.60,283.20 285.60,0.00"/>
        <lane id="3O_2" index="2" speed="13.89" length="283.20" shape="288.80,283.20 288.80,0.00"/>
        <lane id="3O_3" index="3" speed="13.89" length="283.20" shape="292.00,283.20 292.00,0.00"/>
        <lane id="3O_4" index="4" speed="13.89" length="283.20" shape="295.20,283.20 295.20,0.00"/>
        <lane id="3O_5" index="5" speed="13.89" length="283.20" shape="298.40,283.20 298.40,0.00"/>
    </edge>
    <edge id="4I" from="J4" to="J0" priority="-1">
        <lane id="4I_0" index="0" speed="13.89" length="276.80" shape="0.00,288.80 276.80,288.80"/>
        <lane id="4I_1" index="1" speed="13.89" length="276.80" shape="0.00,292.00 276.80,292.00"/>
        <lane id="4I_2" index="2" speed="13.89" length="276.80" shape="0.00,295.20 276.80,295.20"/>
        <lane id="4I_3" index="3" speed="13.89" length="276.80" shape="0.00,298.40 276.80,298.40"/>
    </edge>
    <edge id="4O" from="J0" to="J4" priority="-1">
        <lane id="4O_0" index="0" speed="13.89" length="276.80" shape="276.80,320.80 0.00,320.80"/>
        <lane id="4O_1" index="1" speed="13.89" length="276.80" shape="276.80,317.60 0.00,317.60"/>
        <lane id="4O_2" index="2" speed="13.89" length="276.80" shape="276.80,314.40 0.00,314.40"/>
        <lane id="4O_3" index="3" speed="13.89" length="276.80" shape="276.80,311.20 0.00,311.20"/>
        <lane id="4O_4" index="4" speed="13.89" length="276.80" shape="276.80,308.00 0.00,308.00"/>
        <lane id="4O_5" index="5" speed="13.89" length="276.80" shape="276.80,304.80 0.00,304.80"/>
        <lane id="4O_6" index="6" speed="13.89" length="276.80" shape="276.80,301.60 0.00,301.60"/>
    </edge>

    <tlLogic id="J0" type="static" programID="0" offset="0">
        <phase duration="15" state="rrrGGGGGrrrrrrrrrGGrrr"/>
        <phase duration="3"  state="rrrYYYYYrrrrrrrrrYYrrr"/>
        <phase duration="15" state="GGGrrrrrrrrrrGGGGrrrrr"/>
        <phase duration="3"  state="GGYrrrrrrrrrrGYYYrrrrr"/>
        <phase duration="15" state="GGrrrrrrrrrrGGrrrrrrGG"/>
        <phase duration="3"  state="YYrrrrrrrrrrYYrrrrrrYY"/>
        <phase duration="15" state="rrrrrrGGGGGGrrrrrrGGrr"/>
        <phase duration="3"  state="rrrrrrGGYYYYrrrrrrGYrr"/>
    </tlLogic>

    <junction id="J0" type="traffic_light" x="300.00" y="300.00" incLanes="1I_0 1I_1 1I_2 1I_3 1I_4 1I_5 2I_0 2I_1 2I_2 2I_3 2I_4 2I_5 2I_6 3I_0 3I_1 3I_2 3I_3 3I_4 4I_0 4I_1 4I_2 4I_3" intLanes=":J0_0_0 :J0_0_1 :J0_2_0 :J0_3_0 :J0_3_1 :J0_3_2 :J0_6_0 :J0_6_1 :J0_8_0 :J0_8_1 :J0_8_2 :J0_8_3 :J0_12_0 :J0_13_0 :J0_14_0 :J0_14_1 :J0_14_2 :J0_17_0 :J0_18_0 :J0_19_0 :J0_20_0 :J0_20_1" shape="280.80,326.40 316.00,326.40 316.44,324.18 317.00,323.40 317.78,322.84 318.78,322.51 320.00,322.40 320.00,287.20 317.78,286.76 317.00,286.20 316.44,285.42 316.11,284.42 316.00,283.20 280.80,283.20 280.36,285.42 279.80,286.20 279.02,286.76 278.02,287.09 276.80,287.20 276.80,322.40 279.02,322.84 279.80,323.40 280.36,324.18 280.69,325.18">
        <request index="0"  response="0000000000000000000000" foes="0000000000000000000000" cont="0"/>
        <request index="1"  response="0000000000000000000000" foes="0000000000000000000000" cont="0"/>
        <request index="2"  response="1110000000111100000000" foes="1110100000111100000000" cont="0"/>
        <request index="3"  response="1110011101111100000000" foes="1110011101111100000000" cont="0"/>
        <request index="4"  response="1110011101111100000000" foes="1110011101111100000000" cont="0"/>
        <request index="5"  response="1110011101111100000000" foes="1110011101111100000000" cont="0"/>
        <request index="6"  response="0000000000000000000000" foes="0000011100000000000000" cont="0"/>
        <request index="7"  response="0000000000000000000000" foes="0000011100000000000000" cont="0"/>
        <request index="8"  response="0000000000000000000000" foes="1100011100000000111100" cont="0"/>
        <request index="9"  response="0000000000000000000000" foes="1100011100000000111100" cont="0"/>
        <request index="10" response="0000000000000000000000" foes="1100011100000000111100" cont="0"/>
        <request index="11" response="0000000000000000000000" foes="1100011100000000111100" cont="0"/>
        <request index="12" response="0010000000000000000000" foes="0010111100000000111000" cont="0"/>
        <request index="13" response="0000000000000000000000" foes="0000000000000000000000" cont="0"/>
        <request index="14" response="1110000001111111000000" foes="1110000001111111111000" cont="0"/>
        <request index="15" response="1110000001111111000000" foes="1110000001111111111000" cont="0"/>
        <request index="16" response="1110000001111111000000" foes="1110000001111111111000" cont="0"/>
        <request index="17" response="1110000001000000000100" foes="1110000001000000000100" cont="0"/>
        <request index="18" response="0000000000000000000000" foes="0000000000000000000000" cont="0"/>
        <request index="19" response="0000000000000000000000" foes="0000111101000000111100" cont="0"/>
        <request index="20" response="0000000000111100000000" foes="0000111100111100111100" cont="0"/>
        <request index="21" response="0000000000111100000000" foes="0000111100111100111100" cont="0"/>
    </junction>
    <junction id="J1" type="priority" x="300.00" y="600.00" incLanes="1O_0 1O_1 1O_2 1O_3 1O_4" intLanes=":J1_0_0" shape="300.00,600.00 316.00,600.00 300.00,600.00">
        <request index="0" response="0" foes="0" cont="0"/>
    </junction>
    <junction id="J2" type="priority" x="600.00" y="300.00" incLanes="2O_0 2O_1 2O_2 2O_3" intLanes=":J2_0_0" shape="600.00,300.00 600.00,287.20 600.00,300.00">
        <request index="0" response="0" foes="0" cont="0"/>
    </junction>
    <junction id="J3" type="priority" x="300.00" y="0.00" incLanes="3O_0 3O_1 3O_2 3O_3 3O_4 3O_5" intLanes=":J3_0_0" shape="300.00,0.00 280.80,0.00 300.00,0.00">
        <request index="0" response="0" foes="0" cont="0"/>
    </junction>
    <junction id="J4" type="priority" x="0.00" y="300.00" incLanes="4O_0 4O_1 4O_2 4O_3 4O_4 4O_5 4O_6" intLanes=":J4_0_0" shape="0.00,300.00 0.00,322.40 0.00,300.00">
        <request index="0" response="0" foes="0" cont="0"/>
    </junction>

    <connection from="1I" to="4O" fromLane="0" toLane="0" contPos="0.00" via=":J0_0_0" tl="J0" linkIndex="0" dir="r" state="O"/>
    <connection from="1I" to="4O" fromLane="1" toLane="1" contPos="0.00" via=":J0_0_1" tl="J0" linkIndex="1" dir="r" state="O"/>
    <connection from="1I" to="3O" fromLane="2" toLane="2" contPos="0.00" via=":J0_2_0" tl="J0" linkIndex="2" dir="s" state="o"/>
    <connection from="1I" to="2O" fromLane="3" toLane="1" contPos="0.00" via=":J0_3_0" tl="J0" linkIndex="3" dir="l" state="o"/>
    <connection from="1I" to="2O" fromLane="4" toLane="2" contPos="0.00" via=":J0_3_1" tl="J0" linkIndex="4" dir="l" state="o"/>
    <connection from="1I" to="2O" fromLane="5" toLane="3" contPos="0.00" via=":J0_3_2" tl="J0" linkIndex="5" dir="l" state="o"/>
    <connection from="1O" to="1I" fromLane="4" toLane="5" via=":J1_0_0" dir="t" state="M"/>
    <connection from="2I" to="1O" fromLane="0" toLane="0" contPos="0.00" via=":J0_6_0" tl="J0" linkIndex="6" dir="r" state="O"/>
    <connection from="2I" to="1O" fromLane="1" toLane="1" contPos="0.00" via=":J0_6_1" tl="J0" linkIndex="7" dir="r" state="O"/>
    <connection from="2I" to="4O" fromLane="2" toLane="2" contPos="0.00" via=":J0_8_0" tl="J0" linkIndex="8" dir="s" state="O"/>
    <connection from="2I" to="4O" fromLane="3" toLane="3" contPos="0.00" via=":J0_8_1" tl="J0" linkIndex="9" dir="s" state="O"/>
    <connection from="2I" to="4O" fromLane="4" toLane="4" contPos="0.00" via=":J0_8_2" tl="J0" linkIndex="10" dir="s" state="O"/>
    <connection from="2I" to="4O" fromLane="5" toLane="5" contPos="0.00" via=":J0_8_3" tl="J0" linkIndex="11" dir="s" state="O"/>
    <connection from="2I" to="3O" fromLane="6" toLane="5" contPos="0.00" via=":J0_12_0" tl="J0" linkIndex="12" dir="l" state="o"/>
    <connection from="2O" to="2I" fromLane="3" toLane="6" via=":J2_0_0" dir="t" state="M"/>
    <connection from="3I" to="2O" fromLane="0" toLane="0" contPos="0.00" via=":J0_13_0" tl="J0" linkIndex="13" dir="r" state="O"/>
    <connection from="3I" to="1O" fromLane="1" toLane="1" contPos="0.00" via=":J0_14_0" tl="J0" linkIndex="14" dir="s" state="o"/>
    <connection from="3I" to="1O" fromLane="2" toLane="2" contPos="0.00" via=":J0_14_1" tl="J0" linkIndex="15" dir="s" state="o"/>
    <connection from="3I" to="1O" fromLane="3" toLane="3" contPos="0.00" via=":J0_14_2" tl="J0" linkIndex="16" dir="s" state="o"/>
    <connection from="3I" to="4O" fromLane="4" toLane="6" contPos="0.00" via=":J0_17_0" tl="J0" linkIndex="17" dir="l" state="o"/>
    <connection from="3O" to="3I" fromLane="5" toLane="4" via=":J3_0_0" dir="t" state="M"/>
    <connection from="4I" to="3O" fromLane="0" toLane="0" contPos="0.00" via=":J0_18_0" tl="J0" linkIndex="18" dir="r" state="O"/>
    <connection from="4I" to="2O" fromLane="1" toLane="1" contPos="0.00" via=":J0_19_0" tl="J0" linkIndex="19" dir="s" state="O"/>
    <connection from="4I" to="1O" fromLane="2" toLane="3" contPos="0.00" via=":J0_20_0" tl="J0" linkIndex="20" dir="l" state="o"/>
    <connection from="4I" to="1O" fromLane="3" toLane="4" contPos="0.00" via=":J0_20_1" tl="J0" linkIndex="21" dir="l" state="o"/>
    <connection from="4O" to="4I" fromLane="6" toLane="3" via=":J4_0_0" dir="t" state="M"/>

    <connection from=":J0_0" to="4O" fromLane="0" toLane="0" dir="r" state="M"/>
    <connection from=":J0_0" to="4O" fromLane="1" toLane="1" dir="r" state="M"/>
    <connection from=":J0_2" to="3O" fromLane="0" toLane="2" dir="s" state="M"/>
    <connection from=":J0_3" to="2O" fromLane="0" toLane="1" dir="l" state="M"/>
    <connection from=":J0_3" to="2O" fromLane="1" toLane="2" dir="l" state="M"/>
    <connection from=":J0_3" to="2O" fromLane="2" toLane="3" dir="l" state="M"/>
    <connection from=":J0_6" to="1O" fromLane="0" toLane="0" dir="r" state="M"/>
    <connection from=":J0_6" to="1O" fromLane="1" toLane="1" dir="r" state="M"/>
    <connection from=":J0_8" to="4O" fromLane="0" toLane="2" dir="s" state="M"/>
    <connection from=":J0_8" to="4O" fromLane="1" toLane="3" dir="s" state="M"/>
    <connection from=":J0_8" to="4O" fromLane="2" toLane="4" dir="s" state="M"/>
    <connection from=":J0_8" to="4O" fromLane="3" toLane="5" dir="s" state="M"/>
    <connection from=":J0_12" to="3O" fromLane="0" toLane="5" dir="l" state="M"/>
    <connection from=":J0_13" to="2O" fromLane="0" toLane="0" dir="r" state="M"/>
    <connection from=":J0_14" to="1O" fromLane="0" toLane="1" dir="s" state="M"/>
    <connection from=":J0_14" to="1O" fromLane="1" toLane="2" dir="s" state="M"/>
    <connection from=":J0_14" to="1O" fromLane="2" toLane="3" dir="s" state="M"/>
    <connection from=":J0_17" to="4O" fromLane="0" toLane="6" dir="l" state="M"/>
    <connection from=":J0_18" to="3O" fromLane="0" toLane="0" dir="r" state="M"/>
    <connection from=":J0_19" to="2O" fromLane="0" toLane="1" dir="s" state="M"/>
    <connection from=":J0_20" to="1O" fromLane="0" toLane="3" dir="l" state="M"/>
    <connection from=":J0_20" to="1O" fromLane="1" toLane="4" dir="l" state="M"/>
    <connection from=":J1_0" to="1I" fromLane="0" toLane="5" dir="t" state="M"/>
    <connection from=":J2_0" to="2I" fromLane="0" toLane="6" dir="t" state="M"/>
    <connection from=":J3_0" to="3I" fromLane="0" toLane="4" dir="t" state="M"/>
    <connection from=":J4_0" to="4I" fromLane="0" toLane="3" dir="t" state="M"/>

</net>
