<?xml version="1.0" encoding="UTF-8"?>

<!-- generated on 2022-04-07 14:06:10 by Eclipse SUMO netconvert Version 1.9.2
<configuration xmlns:xsi="http://www.w3.org/2001/XMLSchema-instance" xsi:noNamespaceSchemaLocation="http://sumo.dlr.de/xsd/netconvertConfiguration.xsd">

    <input>
        <node-files value="network/inputs/input.nod.xml"/>
        <edge-files value="network/inputs/input_6_3_7_7.edg.xml"/>
        <connection-files value="network/inputs/input_rrslll_rsl_rrsssll_rssssll.con.xml"/>
        <tllogic-files value="network/inputs/input_rrslll_rsl_rrsssll_rssssll.tll.xml"/>
    </input>

    <output>
        <output-file value="network/rrslll_rsl_rrsssll_rssssll.net.xml"/>
    </output>

    <report>
        <no-warnings value="true"/>
        <aggregate-warnings value="5"/>
        <log value="network/log/rrslll_rsl_rrsssll_rssssll.log.xml"/>
    </report>

</configuration>
-->

<net version="1.9" junctionCornerDetail="5" limitTurnSpeed="5.50" xmlns:xsi="http://www.w3.org/2001/XMLSchema-instance" xsi:noNamespaceSchemaLocation="http://sumo.dlr.de/xsd/net_file.xsd">

    <location netOffset="300.00,300.00" convBoundary="0.00,0.00,600.00,600.00" origBoundary="-300.00,-300.00,300.00,300.00" projParameter="!"/>

    <edge id=":J0_0" function="internal">
        <lane id=":J0_0_0" index="0" speed="6.51" length="9.03" shape="282.40,313.60 282.05,311.15 281.00,309.40 279.25,308.35 276.80,308.00"/>
        <lane id=":J0_0_1" index="1" speed="8.00" length="14.19" shape="285.60,313.60 285.05,309.75 283.40,307.00 280.65,305.35 276.80,304.80"/>
    </edge>
    <edge id=":J0_2" function="internal">
        <lane id=":J0_2_0" index="0" speed="13.89" length="40.00" shape="288.80,313.60 288.80,273.60"/>
    </edge>
    <edge id=":J0_3" function="internal">
        <lane id=":J0_3_0" index="0" speed="13.89" length="45.63" shape="292.00,313.60 294.15,304.15 300.60,297.40 311.35,293.35 326.40,292.00"/>
        <lane id=":J0_3_1" index="1" speed="13.22" length="40.53" shape="295.20,313.60 297.15,305.55 303.00,299.80 312.75,296.35 326.40,295.20"/>
        <lane id=":J0_3_2" index="2" speed="12.38" length="35.45" shape="298.40,313.60 300.15,306.95 305.40,302.20 314.15,299.35 326.40,298.40"/>
    </edge>
    <edge id=":J0_6" function="internal">
        <lane id=":J0_6_0" index="0" speed="6.51" length="9.03" shape="326.40,308.00 323.95,308.35 322.20,309.40 321.15,311.15 320.80,313.60"/>
    </edge>
    <edge id=":J0_7" function="internal">
        <lane id=":J0_7_0" index="0" speed="13.89" length="49.60" shape="326.40,304.80 276.80,304.80"/>
    </edge>
    <edge id=":J0_8" function="internal">
        <lane id=":J0_8_0" index="0" speed="13.89" length="45.16" shape="326.40,301.60 314.15,299.85 305.40,294.60 300.15,285.85 298.40,273.60"/>
    </edge>
    <edge id=":J0_9" function="internal">
        <lane id=":J0_9_0" index="0" speed="6.51" length="9.03" shape="320.80,273.60 321.15,276.05 322.20,277.80 323.95,278.85 326.40,279.20"/>
        <lane id=":J0_9_1" index="1" speed="8.00" length="14.19" shape="317.60,273.60 318.15,277.45 319.80,280.20 322.55,281.85 326.40,282.40"/>
    </edge>
    <edge id=":J0_11" function="internal">
        <lane id=":J0_11_0" index="0" speed="13.89" length="40.00" shape="314.40,273.60 314.40,313.60"/>
        <lane id=":J0_11_1" index="1" speed="13.89" length="40.00" shape="311.20,273.60 311.20,313.60"/>
        <lane id=":J0_11_2" index="2" speed="13.89" length="40.00" shape="308.00,273.60 308.00,313.60"/>
    </edge>
    <edge id=":J0_14" function="internal">
        <lane id=":J0_14_0" index="0" speed="13.89" length="47.77" shape="304.80,273.60 303.05,287.25 297.80,297.00 289.05,302.85 276.80,304.80"/>
        <lane id=":J0_14_1" index="1" speed="13.54" length="42.61" shape="301.60,273.60 300.05,285.85 295.40,294.60 287.65,299.85 276.80,301.60"/>
    </edge>
    <edge id=":J0_16" function="internal">
        <lane id=":J0_16_0" index="0" speed="6.51" length="9.03" shape="276.80,279.20 279.25,278.85 281.00,277.80 282.05,276.05 282.40,273.60"/>
    </edge>
    <edge id=":J0_17" function="internal">
        <lane id=":J0_17_0" index="0" speed="13.89" length="49.60" shape="276.80,282.40 326.40,282.40"/>
        <lane id=":J0_17_1" index="1" speed="13.89" length="49.60" shape="276.80,285.60 326.40,285.60"/>
        <lane id=":J0_17_2" index="2" speed="13.89" length="49.60" shape="276.80,288.80 326.40,288.80"/>
        <lane id=":J0_17_3" index="3" speed="13.89" length="49.60" shape="276.80,292.00 326.40,292.00"/>
    </edge>
    <edge id=":J0_21" function="internal">
        <lane id=":J0_21_0" index="0" speed="12.76" length="37.73" shape="276.80,295.20 289.05,296.35 297.80,299.80 303.05,305.55 304.80,313.60"/>
        <lane id=":J0_21_1" index="1" speed="11.89" length="32.62" shape="276.80,298.40 287.65,299.35 295.40,302.20 300.05,306.95 301.60,313.60"/>
    </edge>
    <edge id=":J1_0" function="internal">
        <lane id=":J1_0_0" index="0" speed="3.65" length="4.67" shape="301.60,600.00 300.80,601.20 300.00,601.60 299.20,601.20 298.40,600.00"/>
    </edge>
    <edge id=":J2_0" function="internal">
        <lane id=":J2_0_0" index="0" speed="3.65" length="4.67" shape="600.00,298.40 601.20,299.20 601.60,300.00 601.20,300.80 600.00,301.60"/>
    </edge>
    <edge id=":J3_0" function="internal">
        <lane id=":J3_0_0" index="0" speed="3.65" length="4.67" shape="298.40,0.00 299.20,-1.20 300.00,-1.60 300.80,-1.20 301.60,0.00"/>
    </edge>
    <edge id=":J4_0" function="internal">
        <lane id=":J4_0_0" index="0" speed="3.65" length="4.67" shape="0.00,301.60 -1.20,300.80 -1.60,300.00 -1.20,299.20 0.00,298.40"/>
    </edge>

    <edge id="1I" from="J1" to="J0" priority="-1">
        <lane id="1I_0" index="0" speed="13.89" length="286.40" shape="282.40,600.00 282.40,313.60"/>
        <lane id="1I_1" index="1" speed="13.89" length="286.40" shape="285.60,600.00 285.60,313.60"/>
        <lane id="1I_2" index="2" speed="13.89" length="286.40" shape="288.80,600.00 288.80,313.60"/>
        <lane id="1I_3" index="3" speed="13.89" length="286.40" shape="292.00,600.00 292.00,313.60"/>
        <lane id="1I_4" index="4" speed="13.89" length="286.40" shape="295.20,600.00 295.20,313.60"/>
        <lane id="1I_5" index="5" speed="13.89" length="286.40" shape="298.40,600.00 298.40,313.60"/>
    </edge>
    <edge id="1O" from="J0" to="J1" priority="-1">
        <lane id="1O_0" index="0" speed="13.89" length="286.40" shape="320.80,313.60 320.80,600.00"/>
        <lane id="1O_1" index="1" speed="13.89" length="286.40" shape="317.60,313.60 317.60,600.00"/>
        <lane id="1O_2" index="2" speed="13.89" length="286.40" shape="314.40,313.60 314.40,600.00"/>
        <lane id="1O_3" index="3" speed="13.89" length="286.40" shape="311.20,313.60 311.20,600.00"/>
        <lane id="1O_4" index="4" speed="13.89" length="286.40" shape="308.00,313.60 308.00,600.00"/>
        <lane id="1O_5" index="5" speed="13.89" length="286.40" shape="304.80,313.60 304.80,600.00"/>
        <lane id="1O_6" index="6" speed="13.89" length="286.40" shape="301.60,313.60 301.60,600.00"/>
    </edge>
    <edge id="2I" from="J2" to="J0" priority="-1">
        <lane id="2I_0" index="0" speed="13.89" length="273.60" shape="600.00,308.00 326.40,308.00"/>
        <lane id="2I_1" index="1" speed="13.89" length="273.60" shape="600.00,304.80 326.40,304.80"/>
        <lane id="2I_2" index="2" speed="13.89" length="273.60" shape="600.00,301.60 326.40,301.60"/>
    </edge>
    <edge id="2O" from="J0" to="J2" priority="-1">
        <lane id="2O_0" index="0" speed="13.89" length="273.60" shape="326.40,279.20 600.00,279.20"/>
        <lane id="2O_1" index="1" speed="13.89" length="273.60" shape="326.40,282.40 600.00,282.40"/>
        <lane id="2O_2" index="2" speed="13.89" length="273.60" shape="326.40,285.60 600.00,285.60"/>
        <lane id="2O_3" index="3" speed="13.89" length="273.60" shape="326.40,288.80 600.00,288.80"/>
        <lane id="2O_4" index="4" speed="13.89" length="273.60" shape="326.40,292.00 600.00,292.00"/>
        <lane id="2O_5" index="5" speed="13.89" length="273.60" shape="326.40,295.20 600.00,295.20"/>
        <lane id="2O_6" index="6" speed="13.89" length="273.60" shape="326.40,298.40 600.00,298.40"/>
    </edge>
    <edge id="3I" from="J3" to="J0" priority="-1">
        <lane id="3I_0" index="0" speed="13.89" length="273.60" shape="320.80,0.00 320.80,273.60"/>
        <lane id="3I_1" index="1" speed="13.89" length="273.60" shape="317.60,0.00 317.60,273.60"/>
        <lane id="3I_2" index="2" speed="13.89" length="273.60" shape="314.40,0.00 314.40,273.60"/>
        <lane id="3I_3" index="3" speed="13.89" length="273.60" shape="311.20,0.00 311.20,273.60"/>
        <lane id="3I_4" index="4" speed="13.89" length="273.60" shape="308.00,0.00 308.00,273.60"/>
        <lane id="3I_5" index="5" speed="13.89" length="273.60" shape="304.80,0.00 304.80,273.60"/>
        <lane id="3I_6" index="6" speed="13.89" length="273.60" shape="301.60,0.00 301.60,273.60"/>
    </edge>
    <edge id="3O" from="J0" to="J3" priority="-1">
        <lane id="3O_0" index="0" speed="13.89" length="273.60" shape="282.40,273.60 282.40,0.00"/>
        <lane id="3O_1" index="1" speed="13.89" length="273.60" shape="285.60,273.60 285.60,0.00"/>
        <lane id="3O_2" index="2" speed="13.89" length="273.60" shape="288.80,273.60 288.80,0.00"/>
        <lane id="3O_3" index="3" speed="13.89" length="273.60" shape="292.00,273.60 292.00,0.00"/>
        <lane id="3O_4" index="4" speed="13.89" length="273.60" shape="295.20,273.60 295.20,0.00"/>
        <lane id="3O_5" index="5" speed="13.89" length="273.60" shape="298.40,273.60 298.40,0.00"/>
    </edge>
    <edge id="4I" from="J4" to="J0" priority="-1">
        <lane id="4I_0" index="0" speed="13.89" length="276.80" shape="0.00,279.20 276.80,279.20"/>
        <lane id="4I_1" index="1" speed="13.89" length="276.80" shape="0.00,282.40 276.80,282.40"/>
        <lane id="4I_2" index="2" speed="13.89" length="276.80" shape="0.00,285.60 276.80,285.60"/>
        <lane id="4I_3" index="3" speed="13.89" length="276.80" shape="0.00,288.80 276.80,288.80"/>
        <lane id="4I_4" index="4" speed="13.89" length="276.80" shape="0.00,292.00 276.80,292.00"/>
        <lane id="4I_5" index="5" speed="13.89" length="276.80" shape="0.00,295.20 276.80,295.20"/>
        <lane id="4I_6" index="6" speed="13.89" length="276.80" shape="0.00,298.40 276.80,298.40"/>
    </edge>
    <edge id="4O" from="J0" to="J4" priority="-1">
        <lane id="4O_0" index="0" speed="13.89" length="276.80" shape="276.80,308.00 0.00,308.00"/>
        <lane id="4O_1" index="1" speed="13.89" length="276.80" shape="276.80,304.80 0.00,304.80"/>
        <lane id="4O_2" index="2" speed="13.89" length="276.80" shape="276.80,301.60 0.00,301.60"/>
    </edge>

    <tlLogic id="J0" type="static" programID="0" offset="0">
        <phase duration="15" state="rrrGGGGrrrrrrrGGGrrrrrr"/>
        <phase duration="3"  state="rrrYYYYrrrrrrrYYYrrrrrr"/>
        <phase duration="15" state="GGGrrrrrrGGGGGrrrrrrrrr"/>
        <phase duration="3"  state="GGYrrrrrrGGYYYrrrrrrrrr"/>
        <phase duration="15" state="GGrrrrrrGGGrrrrrrrrrrGG"/>
        <phase duration="3"  state="YYrrrrrrYYYrrrrrrrrrrYY"/>
        <phase duration="15" state="rrrrrrGGrrrrrrrrGGGGGrr"/>
        <phase duration="3"  state="rrrrrrGYrrrrrrrrGYYYYrr"/>
    </tlLogic>

    <junction id="J0" type="traffic_light" x="300.00" y="300.00" incLanes="1I_0 1I_1 1I_2 1I_3 1I_4 1I_5 2I_0 2I_1 2I_2 3I_0 3I_1 3I_2 3I_3 3I_4 3I_5 3I_6 4I_0 4I_1 4I_2 4I_3 4I_4 4I_5 4I_6" intLanes=":J0_0_0 :J0_0_1 :J0_2_0 :J0_3_0 :J0_3_1 :J0_3_2 :J0_6_0 :J0_7_0 :J0_8_0 :J0_9_0 :J0_9_1 :J0_11_0 :J0_11_1 :J0_11_2 :J0_14_0 :J0_14_1 :J0_16_0 :J0_17_0 :J0_17_1 :J0_17_2 :J0_17_3 :J0_21_0 :J0_21_1" shape="280.80,313.60 322.40,313.60 322.84,311.38 323.40,310.60 324.18,310.04 325.18,309.71 326.40,309.60 326.40,277.60 324.18,277.16 323.40,276.60 322.84,275.82 322.51,274.82 322.40,273.60 280.80,273.60 280.36,275.82 279.80,276.60 279.02,277.16 278.02,277.49 276.80,277.60 276.80,309.60 279.02,310.04 279.80,310.60 280.36,311.38 280.69,312.38">
        <request index="0"  response="00000000000000000000000" foes="00000001100000010000000" cont="0"/>
        <request index="1"  response="00000000000000000000000" foes="00000001100000010000000" cont="0"/>
        <request index="2"  response="00000000000000000000000" foes="11111101100000010000000" cont="0"/>
        <request index="3"  response="00000000011100000000000" foes="11111100011100110000000" cont="0"/>
        <request index="4"  response="00000000011100000000000" foes="11111100011100110000000" cont="0"/>
        <request index="5"  response="00000000011100000000000" foes="11111100011100110000000" cont="0"/>
        <request index="6"  response="00000000000000000000000" foes="00000000000000000000000" cont="0"/>
        <request index="7"  response="00000001111100000111111" foes="11000001111100000111111" cont="0"/>
        <request index="8"  response="00111101111100000111000" foes="00111101111100000111000" cont="0"/>
        <request index="9"  response="00000000000000000000000" foes="00111100000000000000000" cont="0"/>
        <request index="10" response="00000000000000000000000" foes="00111100000000000000000" cont="0"/>
        <request index="11" response="00000000000000000000000" foes="00111100000000110111000" cont="0"/>
        <request index="12" response="00000000000000000000000" foes="00111100000000110111000" cont="0"/>
        <request index="13" response="00000000000000000000000" foes="00111100000000110111000" cont="0"/>
        <request index="14" response="00000000000000000000111" foes="11111100000000110000111" cont="0"/>
        <request index="15" response="00000000000000000000111" foes="11111100000000110000111" cont="0"/>
        <request index="16" response="00000000000000000000000" foes="00000000000000000000000" cont="0"/>
        <request index="17" response="00000001111111000111100" foes="00000001111111100111100" cont="0"/>
        <request index="18" response="00000001111111000111100" foes="00000001111111100111100" cont="0"/>
        <request index="19" response="00000001111111000111100" foes="00000001111111100111100" cont="0"/>
        <request index="20" response="00000001111111000111100" foes="00000001111111100111100" cont="0"/>
        <request index="21" response="00000001100000010111100" foes="00000001100000010111100" cont="0"/>
        <request index="22" response="00000001100000010111100" foes="00000001100000010111100" cont="0"/>
    </junction>
    <junction id="J1" type="priority" x="300.00" y="600.00" incLanes="1O_0 1O_1 1O_2 1O_3 1O_4 1O_5 1O_6" intLanes=":J1_0_0" shape="300.00,600.00 322.40,600.00 300.00,600.00">
        <request index="0" response="0" foes="0" cont="0"/>
    </junction>
    <junction id="J2" type="priority" x="600.00" y="300.00" incLanes="2O_0 2O_1 2O_2 2O_3 2O_4 2O_5 2O_6" intLanes=":J2_0_0" shape="600.00,300.00 600.00,277.60 600.00,300.00">
        <request index="0" response="0" foes="0" cont="0"/>
    </junction>
    <junction id="J3" type="priority" x="300.00" y="0.00" incLanes="3O_0 3O_1 3O_2 3O_3 3O_4 3O_5" intLanes=":J3_0_0" shape="300.00,0.00 280.80,0.00 300.00,0.00">
        <request index="0" response="0" foes="0" cont="0"/>
    </junction>
    <junction id="J4" type="priority" x="0.00" y="300.00" incLanes="4O_0 4O_1 4O_2" intLanes=":J4_0_0" shape="0.00,300.00 0.00,309.60 0.00,300.00">
        <request index="0" response="0" foes="0" cont="0"/>
    </junction>

    <connection from="1I" to="4O" fromLane="0" toLane="0" contPos="0.00" via=":J0_0_0" tl="J0" linkIndex="0" dir="r" state="O"/>
    <connection from="1I" to="4O" fromLane="1" toLane="1" contPos="0.00" via=":J0_0_1" tl="J0" linkIndex="1" dir="r" state="O"/>
    <connection from="1I" to="3O" fromLane="2" toLane="2" contPos="0.00" via=":J0_2_0" tl="J0" linkIndex="2" dir="s" state="O"/>
    <connection from="1I" to="2O" fromLane="3" toLane="4" contPos="0.00" via=":J0_3_0" tl="J0" linkIndex="3" dir="l" state="o"/>
    <connection from="1I" to="2O" fromLane="4" toLane="5" contPos="0.00" via=":J0_3_1" tl="J0" linkIndex="4" dir="l" state="o"/>
    <connection from="1I" to="2O" fromLane="5" toLane="6" contPos="0.00" via=":J0_3_2" tl="J0" linkIndex="5" dir="l" state="o"/>
    <connection from="1O" to="1I" fromLane="6" toLane="5" via=":J1_0_0" dir="t" state="M"/>
    <connection from="2I" to="1O" fromLane="0" toLane="0" contPos="0.00" via=":J0_6_0" tl="J0" linkIndex="6" dir="r" state="O"/>
    <connection from="2I" to="4O" fromLane="1" toLane="1" contPos="0.00" via=":J0_7_0" tl="J0" linkIndex="7" dir="s" state="o"/>
    <connection from="2I" to="3O" fromLane="2" toLane="5" contPos="0.00" via=":J0_8_0" tl="J0" linkIndex="8" dir="l" state="o"/>
    <connection from="2O" to="2I" fromLane="6" toLane="2" via=":J2_0_0" dir="t" state="M"/>
    <connection from="3I" to="2O" fromLane="0" toLane="0" contPos="0.00" via=":J0_9_0" tl="J0" linkIndex="9" dir="r" state="O"/>
    <connection from="3I" to="2O" fromLane="1" toLane="1" contPos="0.00" via=":J0_9_1" tl="J0" linkIndex="10" dir="r" state="O"/>
    <connection from="3I" to="1O" fromLane="2" toLane="2" contPos="0.00" via=":J0_11_0" tl="J0" linkIndex="11" dir="s" state="O"/>
    <connection from="3I" to="1O" fromLane="3" toLane="3" contPos="0.00" via=":J0_11_1" tl="J0" linkIndex="12" dir="s" state="O"/>
    <connection from="3I" to="1O" fromLane="4" toLane="4" contPos="0.00" via=":J0_11_2" tl="J0" linkIndex="13" dir="s" state="O"/>
    <connection from="3I" to="4O" fromLane="5" toLane="1" contPos="0.00" via=":J0_14_0" tl="J0" linkIndex="14" dir="l" state="o"/>
    <connection from="3I" to="4O" fromLane="6" toLane="2" contPos="0.00" via=":J0_14_1" tl="J0" linkIndex="15" dir="l" state="o"/>
    <connection from="3O" to="3I" fromLane="5" toLane="6" via=":J3_0_0" dir="t" state="M"/>
    <connection from="4I" to="3O" fromLane="0" toLane="0" contPos="0.00" via=":J0_16_0" tl="J0" linkIndex="16" dir="r" state="O"/>
    <connection from="4I" to="2O" fromLane="1" toLane="1" contPos="0.00" via=":J0_17_0" tl="J0" linkIndex="17" dir="s" state="o"/>
    <connection from="4I" to="2O" fromLane="2" toLane="2" contPos="0.00" via=":J0_17_1" tl="J0" linkIndex="18" dir="s" state="o"/>
    <connection from="4I" to="2O" fromLane="3" toLane="3" contPos="0.00" via=":J0_17_2" tl="J0" linkIndex="19" dir="s" state="o"/>
    <connection from="4I" to="2O" fromLane="4" toLane="4" contPos="0.00" via=":J0_17_3" tl="J0" linkIndex="20" dir="s" state="o"/>
    <connection from="4I" to="1O" fromLane="5" toLane="5" contPos="0.00" via=":J0_21_0" tl="J0" linkIndex="21" dir="l" state="o"/>
    <connection from="4I" to="1O" fromLane="6" toLane="6" contPos="0.00" via=":J0_21_1" tl="J0" linkIndex="22" dir="l" state="o"/>
    <connection from="4O" to="4I" fromLane="2" toLane="6" via=":J4_0_0" dir="t" state="M"/>

    <connection from=":J0_0" to="4O" fromLane="0" toLane="0" dir="r" state="M"/>
    <connection from=":J0_0" to="4O" fromLane="1" toLane="1" dir="r" state="M"/>
    <connection from=":J0_2" to="3O" fromLane="0" toLane="2" dir="s" state="M"/>
    <connection from=":J0_3" to="2O" fromLane="0" toLane="4" dir="l" state="M"/>
    <connection from=":J0_3" to="2O" fromLane="1" toLane="5" dir="l" state="M"/>
    <connection from=":J0_3" to="2O" fromLane="2" toLane="6" dir="l" state="M"/>
    <connection from=":J0_6" to="1O" fromLane="0" toLane="0" dir="r" state="M"/>
    <connection from=":J0_7" to="4O" fromLane="0" toLane="1" dir="s" state="M"/>
    <connection from=":J0_8" to="3O" fromLane="0" toLane="5" dir="l" state="M"/>
    <connection from=":J0_9" to="2O" fromLane="0" toLane="0" dir="r" state="M"/>
    <connection from=":J0_9" to="2O" fromLane="1" toLane="1" dir="r" state="M"/>
    <connection from=":J0_11" to="1O" fromLane="0" toLane="2" dir="s" state="M"/>
    <connection from=":J0_11" to="1O" fromLane="1" toLane="3" dir="s" state="M"/>
    <connection from=":J0_11" to="1O" fromLane="2" toLane="4" dir="s" state="M"/>
    <connection from=":J0_14" to="4O" fromLane="0" toLane="1" dir="l" state="M"/>
    <connection from=":J0_14" to="4O" fromLane="1" toLane="2" dir="l" state="M"/>
    <connection from=":J0_16" to="3O" fromLane="0" toLane="0" dir="r" state="M"/>
    <connection from=":J0_17" to="2O" fromLane="0" toLane="1" dir="s" state="M"/>
    <connection from=":J0_17" to="2O" fromLane="1" toLane="2" dir="s" state="M"/>
    <connection from=":J0_17" to="2O" fromLane="2" toLane="3" dir="s" state="M"/>
    <connection from=":J0_17" to="2O" fromLane="3" toLane="4" dir="s" state="M"/>
    <connection from=":J0_21" to="1O" fromLane="0" toLane="5" dir="l" state="M"/>
    <connection from=":J0_21" to="1O" fromLane="1" toLane="6" dir="l" state="M"/>
    <connection from=":J1_0" to="1I" fromLane="0" toLane="5" dir="t" state="M"/>
    <connection from=":J2_0" to="2I" fromLane="0" toLane="2" dir="t" state="M"/>
    <connection from=":J3_0" to="3I" fromLane="0" toLane="6" dir="t" state="M"/>
    <connection from=":J4_0" to="4I" fromLane="0" toLane="6" dir="t" state="M"/>

</net>
