<?xml version="1.0" encoding="UTF-8"?>

<!-- generated on 2022-04-07 14:05:40 by Eclipse SUMO netconvert Version 1.9.2
<configuration xmlns:xsi="http://www.w3.org/2001/XMLSchema-instance" xsi:noNamespaceSchemaLocation="http://sumo.dlr.de/xsd/netconvertConfiguration.xsd">

    <input>
        <node-files value="network/inputs/input.nod.xml"/>
        <edge-files value="network/inputs/input_4_7_6_3.edg.xml"/>
        <connection-files value="network/inputs/input_rrsl_rrsslll_rssssl_rsl.con.xml"/>
        <tllogic-files value="network/inputs/input_rrsl_rrsslll_rssssl_rsl.tll.xml"/>
    </input>

    <output>
        <output-file value="network/rrsl_rrsslll_rssssl_rsl.net.xml"/>
    </output>

    <report>
        <no-warnings value="true"/>
        <aggregate-warnings value="5"/>
        <log value="network/log/rrsl_rrsslll_rssssl_rsl.log.xml"/>
    </report>

</configuration>
-->

<net version="1.9" junctionCornerDetail="5" limitTurnSpeed="5.50" xmlns:xsi="http://www.w3.org/2001/XMLSchema-instance" xsi:noNamespaceSchemaLocation="http://sumo.dlr.de/xsd/net_file.xsd">

    <location netOffset="300.00,300.00" convBoundary="0.00,0.00,600.00,600.00" origBoundary="-300.00,-300.00,300.00,300.00" projParameter="!"/>

    <edge id=":J0_0" function="internal">
        <lane id=":J0_0_0" index="0" speed="6.51" length="9.03" shape="288.80,326.40 288.45,323.95 287.40,322.20 285.65,321.15 283.20,320.80"/>
        <lane id=":J0_0_1" index="1" speed="8.00" length="14.19" shape="292.00,326.40 291.45,322.55 289.80,319.80 287.05,318.15 283.20,317.60"/>
    </edge>
    <edge id=":J0_2" function="internal">
        <lane id=":J0_2_0" index="0" speed="13.89" length="40.00" shape="295.20,326.40 295.20,286.40"/>
    </edge>
    <edge id=":J0_3" function="internal">
        <lane id=":J0_3_0" index="0" speed="13.54" length="42.61" shape="298.40,326.40 299.95,314.15 304.60,305.40 312.35,300.15 323.20,298.40"/>
    </edge>
    <edge id=":J0_4" function="internal">
        <lane id=":J0_4_0" index="0" speed="6.51" length="9.03" shape="323.20,320.80 320.75,321.15 319.00,322.20 317.95,323.95 317.60,326.40"/>
        <lane id=":J0_4_1" index="1" speed="8.00" length="14.19" shape="323.20,317.60 319.35,318.15 316.60,319.80 314.95,322.55 314.40,326.40"/>
    </edge>
    <edge id=":J0_6" function="internal">
        <lane id=":J0_6_0" index="0" speed="13.89" length="40.00" shape="323.20,314.40 283.20,314.40"/>
        <lane id=":J0_6_1" index="1" speed="13.89" length="40.00" shape="323.20,311.20 283.20,311.20"/>
    </edge>
    <edge id=":J0_8" function="internal">
        <lane id=":J0_8_0" index="0" speed="13.58" length="42.86" shape="323.20,308.00 309.55,306.65 299.80,302.60 293.95,295.85 292.00,286.40"/>
        <lane id=":J0_8_1" index="1" speed="12.76" length="37.73" shape="323.20,304.80 310.95,303.65 302.20,300.20 296.95,294.45 295.20,286.40"/>
        <lane id=":J0_8_2" index="2" speed="11.89" length="32.62" shape="323.20,301.60 312.35,300.65 304.60,297.80 299.95,293.05 298.40,286.40"/>
    </edge>
    <edge id=":J0_11" function="internal">
        <lane id=":J0_11_0" index="0" speed="6.51" length="9.03" shape="317.60,286.40 317.95,288.85 319.00,290.60 320.75,291.65 323.20,292.00"/>
    </edge>
    <edge id=":J0_12" function="internal">
        <lane id=":J0_12_0" index="0" speed="13.89" length="40.00" shape="314.40,286.40 314.40,326.40"/>
        <lane id=":J0_12_1" index="1" speed="13.89" length="40.00" shape="311.20,286.40 311.20,326.40"/>
        <lane id=":J0_12_2" index="2" speed="13.89" length="40.00" shape="308.00,286.40 308.00,326.40"/>
        <lane id=":J0_12_3" index="3" speed="13.89" length="40.00" shape="304.80,286.40 304.80,326.40"/>
    </edge>
    <edge id=":J0_16" function="internal">
        <lane id=":J0_16_0" index="0" speed="10.88" length="27.14" shape="301.60,286.40 300.45,293.05 297.00,297.80 291.25,300.65 283.20,301.60"/>
    </edge>
    <edge id=":J0_17" function="internal">
        <lane id=":J0_17_0" index="0" speed="6.51" length="9.03" shape="283.20,292.00 285.65,291.65 287.40,290.60 288.45,288.85 288.80,286.40"/>
    </edge>
    <edge id=":J0_18" function="internal">
        <lane id=":J0_18_0" index="0" speed="13.89" length="40.00" shape="283.20,295.20 323.20,295.20"/>
    </edge>
    <edge id=":J0_19" function="internal">
        <lane id=":J0_19_0" index="0" speed="12.76" length="37.73" shape="283.20,298.40 291.25,300.15 297.00,305.40 300.45,314.15 301.60,326.40"/>
    </edge>
    <edge id=":J1_0" function="internal">
        <lane id=":J1_0_0" index="0" speed="3.65" length="4.67" shape="301.60,600.00 300.80,601.20 300.00,601.60 299.20,601.20 298.40,600.00"/>
    </edge>
    <edge id=":J2_0" function="internal">
        <lane id=":J2_0_0" index="0" speed="3.65" length="4.67" shape="600.00,298.40 601.20,299.20 601.60,300.00 601.20,300.80 600.00,301.60"/>
    </edge>
    <edge id=":J3_0" function="internal">
        <lane id=":J3_0_0" index="0" speed="3.65" length="4.67" shape="298.40,0.00 299.20,-1.20 300.00,-1.60 300.80,-1.20 301.60,0.00"/>
    </edge>
    <edge id=":J4_0" function="internal">
        <lane id=":J4_0_0" index="0" speed="3.65" length="4.67" shape="0.00,301.60 -1.20,300.80 -1.60,300.00 -1.20,299.20 0.00,298.40"/>
    </edge>

    <edge id="1I" from="J1" to="J0" priority="-1">
        <lane id="1I_0" index="0" speed="13.89" length="273.60" shape="288.80,600.00 288.80,326.40"/>
        <lane id="1I_1" index="1" speed="13.89" length="273.60" shape="292.00,600.00 292.00,326.40"/>
        <lane id="1I_2" index="2" speed="13.89" length="273.60" shape="295.20,600.00 295.20,326.40"/>
        <lane id="1I_3" index="3" speed="13.89" length="273.60" shape="298.40,600.00 298.40,326.40"/>
    </edge>
    <edge id="1O" from="J0" to="J1" priority="-1">
        <lane id="1O_0" index="0" speed="13.89" length="273.60" shape="317.60,326.40 317.60,600.00"/>
        <lane id="1O_1" index="1" speed="13.89" length="273.60" shape="314.40,326.40 314.40,600.00"/>
        <lane id="1O_2" index="2" speed="13.89" length="273.60" shape="311.20,326.40 311.20,600.00"/>
        <lane id="1O_3" index="3" speed="13.89" length="273.60" shape="308.00,326.40 308.00,600.00"/>
        <lane id="1O_4" index="4" speed="13.89" length="273.60" shape="304.80,326.40 304.80,600.00"/>
        <lane id="1O_5" index="5" speed="13.89" length="273.60" shape="301.60,326.40 301.60,600.00"/>
    </edge>
    <edge id="2I" from="J2" to="J0" priority="-1">
        <lane id="2I_0" index="0" speed="13.89" length="276.80" shape="600.00,320.80 323.20,320.80"/>
        <lane id="2I_1" index="1" speed="13.89" length="276.80" shape="600.00,317.60 323.20,317.60"/>
        <lane id="2I_2" index="2" speed="13.89" length="276.80" shape="600.00,314.40 323.20,314.40"/>
        <lane id="2I_3" index="3" speed="13.89" length="276.80" shape="600.00,311.20 323.20,311.20"/>
        <lane id="2I_4" index="4" speed="13.89" length="276.80" shape="600.00,308.00 323.20,308.00"/>
        <lane id="2I_5" index="5" speed="13.89" length="276.80" shape="600.00,304.80 323.20,304.80"/>
        <lane id="2I_6" index="6" speed="13.89" length="276.80" shape="600.00,301.60 323.20,301.60"/>
    </edge>
    <edge id="2O" from="J0" to="J2" priority="-1">
        <lane id="2O_0" index="0" speed="13.89" length="276.80" shape="323.20,292.00 600.00,292.00"/>
        <lane id="2O_1" index="1" speed="13.89" length="276.80" shape="323.20,295.20 600.00,295.20"/>
        <lane id="2O_2" index="2" speed="13.89" length="276.80" shape="323.20,298.40 600.00,298.40"/>
    </edge>
    <edge id="3I" from="J3" to="J0" priority="-1">
        <lane id="3I_0" index="0" speed="13.89" length="286.40" shape="317.60,0.00 317.60,286.40"/>
        <lane id="3I_1" index="1" speed="13.89" length="286.40" shape="314.40,0.00 314.40,286.40"/>
        <lane id="3I_2" index="2" speed="13.89" length="286.40" shape="311.20,0.00 311.20,286.40"/>
        <lane id="3I_3" index="3" speed="13.89" length="286.40" shape="308.00,0.00 308.00,286.40"/>
        <lane id="3I_4" index="4" speed="13.89" length="286.40" shape="304.80,0.00 304.80,286.40"/>
        <lane id="3I_5" index="5" speed="13.89" length="286.40" shape="301.60,0.00 301.60,286.40"/>
    </edge>
    <edge id="3O" from="J0" to="J3" priority="-1">
        <lane id="3O_0" index="0" speed="13.89" length="286.40" shape="288.80,286.40 288.80,0.00"/>
        <lane id="3O_1" index="1" speed="13.89" length="286.40" shape="292.00,286.40 292.00,0.00"/>
        <lane id="3O_2" index="2" speed="13.89" length="286.40" shape="295.20,286.40 295.20,0.00"/>
        <lane id="3O_3" index="3" speed="13.89" length="286.40" shape="298.40,286.40 298.40,0.00"/>
    </edge>
    <edge id="4I" from="J4" to="J0" priority="-1">
        <lane id="4I_0" index="0" speed="13.89" length="283.20" shape="0.00,292.00 283.20,292.00"/>
        <lane id="4I_1" index="1" speed="13.89" length="283.20" shape="0.00,295.20 283.20,295.20"/>
        <lane id="4I_2" index="2" speed="13.89" length="283.20" shape="0.00,298.40 283.20,298.40"/>
    </edge>
    <edge id="4O" from="J0" to="J4" priority="-1">
        <lane id="4O_0" index="0" speed="13.89" length="283.20" shape="283.20,320.80 0.00,320.80"/>
        <lane id="4O_1" index="1" speed="13.89" length="283.20" shape="283.20,317.60 0.00,317.60"/>
        <lane id="4O_2" index="2" speed="13.89" length="283.20" shape="283.20,314.40 0.00,314.40"/>
        <lane id="4O_3" index="3" speed="13.89" length="283.20" shape="283.20,311.20 0.00,311.20"/>
        <lane id="4O_4" index="4" speed="13.89" length="283.20" shape="283.20,308.00 0.00,308.00"/>
        <lane id="4O_5" index="5" speed="13.89" length="283.20" shape="283.20,304.80 0.00,304.80"/>
        <lane id="4O_6" index="6" speed="13.89" length="283.20" shape="283.20,301.60 0.00,301.60"/>
    </edge>

    <tlLogic id="J0" type="static" programID="0" offset="0">
        <phase duration="15" state="rrrGGGrrrrrrrrrrGGrr"/>
        <phase duration="3"  state="rrrYYYrrrrrrrrrrYYrr"/>
        <phase duration="15" state="GGGrrrrrrrrGGGGGrrrr"/>
        <phase duration="3"  state="GGYrrrrrrrrGYYYYrrrr"/>
        <phase duration="15" state="GGrrrrrrGGGGrrrrrrrG"/>
        <phase duration="3"  state="YYrrrrrrYYYYrrrrrrrY"/>
        <phase duration="15" state="rrrrGGGGrrrrrrrrrGGr"/>
        <phase duration="3"  state="rrrrGGYYrrrrrrrrrGYr"/>
    </tlLogic>

    <junction id="J0" type="traffic_light" x="300.00" y="300.00" incLanes="1I_0 1I_1 1I_2 1I_3 2I_0 2I_1 2I_2 2I_3 2I_4 2I_5 2I_6 3I_0 3I_1 3I_2 3I_3 3I_4 3I_5 4I_0 4I_1 4I_2" intLanes=":J0_0_0 :J0_0_1 :J0_2_0 :J0_3_0 :J0_4_0 :J0_4_1 :J0_6_0 :J0_6_1 :J0_8_0 :J0_8_1 :J0_8_2 :J0_11_0 :J0_12_0 :J0_12_1 :J0_12_2 :J0_12_3 :J0_16_0 :J0_17_0 :J0_18_0 :J0_19_0" shape="287.20,326.40 319.20,326.40 319.64,324.18 320.20,323.40 320.98,322.84 321.98,322.51 323.20,322.40 323.20,290.40 320.98,289.96 320.20,289.40 319.64,288.62 319.31,287.62 319.20,286.40 287.20,286.40 286.76,288.62 286.20,289.40 285.42,289.96 284.42,290.29 283.20,290.40 283.20,322.40 285.42,322.84 286.20,323.40 286.76,324.18 287.09,325.18">
        <request index="0"  response="00000000000000000000" foes="00000000000000000000" cont="0"/>
        <request index="1"  response="00000000000000000000" foes="00000000000000000000" cont="0"/>
        <request index="2"  response="11000000011111000000" foes="11010000011111000000" cont="0"/>
        <request index="3"  response="10001111011111000000" foes="10001111011111000000" cont="0"/>
        <request index="4"  response="00000000000000000000" foes="00001111000000000000" cont="0"/>
        <request index="5"  response="00000000000000000000" foes="00001111000000000000" cont="0"/>
        <request index="6"  response="00000000000000000000" foes="10001111000000001100" cont="0"/>
        <request index="7"  response="00000000000000000000" foes="10001111000000001100" cont="0"/>
        <request index="8"  response="01000000000000000000" foes="01011111000000001100" cont="0"/>
        <request index="9"  response="01000000000000000000" foes="01011111000000001100" cont="0"/>
        <request index="10" response="01000000000000000000" foes="01011111000000001100" cont="0"/>
        <request index="11" response="00000000000000000000" foes="00000000000000000000" cont="0"/>
        <request index="12" response="01000000011111110000" foes="01000000011111111000" cont="0"/>
        <request index="13" response="01000000011111110000" foes="01000000011111111000" cont="0"/>
        <request index="14" response="01000000011111110000" foes="01000000011111111000" cont="0"/>
        <request index="15" response="01000000011111110000" foes="01000000011111111000" cont="0"/>
        <request index="16" response="11000000011100000100" foes="11000000011100000100" cont="0"/>
        <request index="17" response="00000000000000000000" foes="00000000000000000000" cont="0"/>
        <request index="18" response="00000000000000000000" foes="00011111011100000100" cont="0"/>
        <request index="19" response="00000000000011000000" foes="00010000000011001100" cont="0"/>
    </junction>
    <junction id="J1" type="priority" x="300.00" y="600.00" incLanes="1O_0 1O_1 1O_2 1O_3 1O_4 1O_5" intLanes=":J1_0_0" shape="300.00,600.00 319.20,600.00 300.00,600.00">
        <request index="0" response="0" foes="0" cont="0"/>
    </junction>
    <junction id="J2" type="priority" x="600.00" y="300.00" incLanes="2O_0 2O_1 2O_2" intLanes=":J2_0_0" shape="600.00,300.00 600.00,290.40 600.00,300.00">
        <request index="0" response="0" foes="0" cont="0"/>
    </junction>
    <junction id="J3" type="priority" x="300.00" y="0.00" incLanes="3O_0 3O_1 3O_2 3O_3" intLanes=":J3_0_0" shape="300.00,0.00 287.20,0.00 300.00,0.00">
        <request index="0" response="0" foes="0" cont="0"/>
    </junction>
    <junction id="J4" type="priority" x="0.00" y="300.00" incLanes="4O_0 4O_1 4O_2 4O_3 4O_4 4O_5 4O_6" intLanes=":J4_0_0" shape="0.00,300.00 0.00,322.40 0.00,300.00">
        <request index="0" response="0" foes="0" cont="0"/>
    </junction>

    <connection from="1I" to="4O" fromLane="0" toLane="0" contPos="0.00" via=":J0_0_0" tl="J0" linkIndex="0" dir="r" state="O"/>
    <connection from="1I" to="4O" fromLane="1" toLane="1" contPos="0.00" via=":J0_0_1" tl="J0" linkIndex="1" dir="r" state="O"/>
    <connection from="1I" to="3O" fromLane="2" toLane="2" contPos="0.00" via=":J0_2_0" tl="J0" linkIndex="2" dir="s" state="o"/>
    <connection from="1I" to="2O" fromLane="3" toLane="2" contPos="0.00" via=":J0_3_0" tl="J0" linkIndex="3" dir="l" state="o"/>
    <connection from="1O" to="1I" fromLane="5" toLane="3" via=":J1_0_0" dir="t" state="M"/>
    <connection from="2I" to="1O" fromLane="0" toLane="0" contPos="0.00" via=":J0_4_0" tl="J0" linkIndex="4" dir="r" state="O"/>
    <connection from="2I" to="1O" fromLane="1" toLane="1" contPos="0.00" via=":J0_4_1" tl="J0" linkIndex="5" dir="r" state="O"/>
    <connection from="2I" to="4O" fromLane="2" toLane="2" contPos="0.00" via=":J0_6_0" tl="J0" linkIndex="6" dir="s" state="O"/>
    <connection from="2I" to="4O" fromLane="3" toLane="3" contPos="0.00" via=":J0_6_1" tl="J0" linkIndex="7" dir="s" state="O"/>
    <connection from="2I" to="3O" fromLane="4" toLane="1" contPos="0.00" via=":J0_8_0" tl="J0" linkIndex="8" dir="l" state="o"/>
    <connection from="2I" to="3O" fromLane="5" toLane="2" contPos="0.00" via=":J0_8_1" tl="J0" linkIndex="9" dir="l" state="o"/>
    <connection from="2I" to="3O" fromLane="6" toLane="3" contPos="0.00" via=":J0_8_2" tl="J0" linkIndex="10" dir="l" state="o"/>
    <connection from="2O" to="2I" fromLane="2" toLane="6" via=":J2_0_0" dir="t" state="M"/>
    <connection from="3I" to="2O" fromLane="0" toLane="0" contPos="0.00" via=":J0_11_0" tl="J0" linkIndex="11" dir="r" state="O"/>
    <connection from="3I" to="1O" fromLane="1" toLane="1" contPos="0.00" via=":J0_12_0" tl="J0" linkIndex="12" dir="s" state="o"/>
    <connection from="3I" to="1O" fromLane="2" toLane="2" contPos="0.00" via=":J0_12_1" tl="J0" linkIndex="13" dir="s" state="o"/>
    <connection from="3I" to="1O" fromLane="3" toLane="3" contPos="0.00" via=":J0_12_2" tl="J0" linkIndex="14" dir="s" state="o"/>
    <connection from="3I" to="1O" fromLane="4" toLane="4" contPos="0.00" via=":J0_12_3" tl="J0" linkIndex="15" dir="s" state="o"/>
    <connection from="3I" to="4O" fromLane="5" toLane="6" contPos="0.00" via=":J0_16_0" tl="J0" linkIndex="16" dir="l" state="o"/>
    <connection from="3O" to="3I" fromLane="3" toLane="5" via=":J3_0_0" dir="t" state="M"/>
    <connection from="4I" to="3O" fromLane="0" toLane="0" contPos="0.00" via=":J0_17_0" tl="J0" linkIndex="17" dir="r" state="O"/>
    <connection from="4I" to="2O" fromLane="1" toLane="1" contPos="0.00" via=":J0_18_0" tl="J0" linkIndex="18" dir="s" state="O"/>
    <connection from="4I" to="1O" fromLane="2" toLane="5" contPos="0.00" via=":J0_19_0" tl="J0" linkIndex="19" dir="l" state="o"/>
    <connection from="4O" to="4I" fromLane="6" toLane="2" via=":J4_0_0" dir="t" state="M"/>

    <connection from=":J0_0" to="4O" fromLane="0" toLane="0" dir="r" state="M"/>
    <connection from=":J0_0" to="4O" fromLane="1" toLane="1" dir="r" state="M"/>
    <connection from=":J0_2" to="3O" fromLane="0" toLane="2" dir="s" state="M"/>
    <connection from=":J0_3" to="2O" fromLane="0" toLane="2" dir="l" state="M"/>
    <connection from=":J0_4" to="1O" fromLane="0" toLane="0" dir="r" state="M"/>
    <connection from=":J0_4" to="1O" fromLane="1" toLane="1" dir="r" state="M"/>
    <connection from=":J0_6" to="4O" fromLane="0" toLane="2" dir="s" state="M"/>
    <connection from=":J0_6" to="4O" fromLane="1" toLane="3" dir="s" state="M"/>
    <connection from=":J0_8" to="3O" fromLane="0" toLane="1" dir="l" state="M"/>
    <connection from=":J0_8" to="3O" fromLane="1" toLane="2" dir="l" state="M"/>
    <connection from=":J0_8" to="3O" fromLane="2" toLane="3" dir="l" state="M"/>
    <connection from=":J0_11" to="2O" fromLane="0" toLane="0" dir="r" state="M"/>
    <connection from=":J0_12" to="1O" fromLane="0" toLane="1" dir="s" state="M"/>
    <connection from=":J0_12" to="1O" fromLane="1" toLane="2" dir="s" state="M"/>
    <connection from=":J0_12" to="1O" fromLane="2" toLane="3" dir="s" state="M"/>
    <connection from=":J0_12" to="1O" fromLane="3" toLane="4" dir="s" state="M"/>
    <connection from=":J0_16" to="4O" fromLane="0" toLane="6" dir="l" state="M"/>
    <connection from=":J0_17" to="3O" fromLane="0" toLane="0" dir="r" state="M"/>
    <connection from=":J0_18" to="2O" fromLane="0" toLane="1" dir="s" state="M"/>
    <connection from=":J0_19" to="1O" fromLane="0" toLane="5" dir="l" state="M"/>
    <connection from=":J1_0" to="1I" fromLane="0" toLane="3" dir="t" state="M"/>
    <connection from=":J2_0" to="2I" fromLane="0" toLane="6" dir="t" state="M"/>
    <connection from=":J3_0" to="3I" fromLane="0" toLane="5" dir="t" state="M"/>
    <connection from=":J4_0" to="4I" fromLane="0" toLane="2" dir="t" state="M"/>

</net>
