<?xml version="1.0" encoding="UTF-8"?>

<!-- generated on 2022-04-07 14:06:21 by Eclipse SUMO netconvert Version 1.9.2
<configuration xmlns:xsi="http://www.w3.org/2001/XMLSchema-instance" xsi:noNamespaceSchemaLocation="http://sumo.dlr.de/xsd/netconvertConfiguration.xsd">

    <input>
        <node-files value="network/inputs/input.nod.xml"/>
        <edge-files value="network/inputs/input_6_6_4_6.edg.xml"/>
        <connection-files value="network/inputs/input_rrslll_rsslll_rrsl_rrssll.con.xml"/>
        <tllogic-files value="network/inputs/input_rrslll_rsslll_rrsl_rrssll.tll.xml"/>
    </input>

    <output>
        <output-file value="network/rrslll_rsslll_rrsl_rrssll.net.xml"/>
    </output>

    <report>
        <no-warnings value="true"/>
        <aggregate-warnings value="5"/>
        <log value="network/log/rrslll_rsslll_rrsl_rrssll.log.xml"/>
    </report>

</configuration>
-->

<net version="1.9" junctionCornerDetail="5" limitTurnSpeed="5.50" xmlns:xsi="http://www.w3.org/2001/XMLSchema-instance" xsi:noNamespaceSchemaLocation="http://sumo.dlr.de/xsd/net_file.xsd">

    <location netOffset="300.00,300.00" convBoundary="0.00,0.00,600.00,600.00" origBoundary="-300.00,-300.00,300.00,300.00" projParameter="!"/>

    <edge id=":J0_0" function="internal">
        <lane id=":J0_0_0" index="0" speed="6.51" length="9.03" shape="282.40,323.20 282.05,320.75 281.00,319.00 279.25,317.95 276.80,317.60"/>
        <lane id=":J0_0_1" index="1" speed="8.00" length="14.19" shape="285.60,323.20 285.05,319.35 283.40,316.60 280.65,314.95 276.80,314.40"/>
    </edge>
    <edge id=":J0_2" function="internal">
        <lane id=":J0_2_0" index="0" speed="13.89" length="46.40" shape="288.80,323.20 288.80,276.80"/>
    </edge>
    <edge id=":J0_3" function="internal">
        <lane id=":J0_3_0" index="0" speed="13.89" length="45.27" shape="292.00,323.20 293.55,309.55 298.20,299.80 305.95,293.95 316.80,292.00"/>
        <lane id=":J0_3_1" index="1" speed="13.15" length="40.13" shape="295.20,323.20 296.55,310.95 300.60,302.20 307.35,296.95 316.80,295.20"/>
        <lane id=":J0_3_2" index="2" speed="12.30" length="34.99" shape="298.40,323.20 299.55,312.35 303.00,304.60 308.75,299.95 316.80,298.40"/>
    </edge>
    <edge id=":J0_6" function="internal">
        <lane id=":J0_6_0" index="0" speed="6.51" length="9.03" shape="316.80,317.60 314.35,317.95 312.60,319.00 311.55,320.75 311.20,323.20"/>
    </edge>
    <edge id=":J0_7" function="internal">
        <lane id=":J0_7_0" index="0" speed="13.89" length="40.00" shape="316.80,314.40 276.80,314.40"/>
        <lane id=":J0_7_1" index="1" speed="13.89" length="40.00" shape="316.80,311.20 276.80,311.20"/>
    </edge>
    <edge id=":J0_9" function="internal">
        <lane id=":J0_9_0" index="0" speed="13.89" length="45.27" shape="316.80,308.00 305.95,306.05 298.20,300.20 293.55,290.45 292.00,276.80"/>
        <lane id=":J0_9_1" index="1" speed="13.15" length="40.13" shape="316.80,304.80 307.35,303.05 300.60,297.80 296.55,289.05 295.20,276.80"/>
        <lane id=":J0_9_2" index="2" speed="12.30" length="34.99" shape="316.80,301.60 308.75,300.05 303.00,295.40 299.55,287.65 298.40,276.80"/>
    </edge>
    <edge id=":J0_12" function="internal">
        <lane id=":J0_12_0" index="0" speed="6.51" length="9.03" shape="311.20,276.80 311.55,279.25 312.60,281.00 314.35,282.05 316.80,282.40"/>
        <lane id=":J0_12_1" index="1" speed="8.00" length="14.19" shape="308.00,276.80 308.55,280.65 310.20,283.40 312.95,285.05 316.80,285.60"/>
    </edge>
    <edge id=":J0_14" function="internal">
        <lane id=":J0_14_0" index="0" speed="13.89" length="46.40" shape="304.80,276.80 304.80,323.20"/>
    </edge>
    <edge id=":J0_15" function="internal">
        <lane id=":J0_15_0" index="0" speed="13.13" length="40.00" shape="301.60,276.80 300.05,287.65 295.40,295.40 287.65,300.05 276.80,301.60"/>
    </edge>
    <edge id=":J0_16" function="internal">
        <lane id=":J0_16_0" index="0" speed="6.51" length="9.03" shape="276.80,282.40 279.25,282.05 281.00,281.00 282.05,279.25 282.40,276.80"/>
        <lane id=":J0_16_1" index="1" speed="8.00" length="14.19" shape="276.80,285.60 280.65,285.05 283.40,283.40 285.05,280.65 285.60,276.80"/>
    </edge>
    <edge id=":J0_18" function="internal">
        <lane id=":J0_18_0" index="0" speed="13.89" length="40.00" shape="276.80,288.80 316.80,288.80"/>
        <lane id=":J0_18_1" index="1" speed="13.89" length="40.00" shape="276.80,292.00 316.80,292.00"/>
    </edge>
    <edge id=":J0_20" function="internal">
        <lane id=":J0_20_0" index="0" speed="13.89" length="45.16" shape="276.80,295.20 289.05,296.95 297.80,302.20 303.05,310.95 304.80,323.20"/>
        <lane id=":J0_20_1" index="1" speed="13.13" length="40.00" shape="276.80,298.40 287.65,299.95 295.40,304.60 300.05,312.35 301.60,323.20"/>
    </edge>
    <edge id=":J1_0" function="internal">
        <lane id=":J1_0_0" index="0" speed="3.65" length="4.67" shape="301.60,600.00 300.80,601.20 300.00,601.60 299.20,601.20 298.40,600.00"/>
    </edge>
    <edge id=":J2_0" function="internal">
        <lane id=":J2_0_0" index="0" speed="3.65" length="4.67" shape="600.00,298.40 601.20,299.20 601.60,300.00 601.20,300.80 600.00,301.60"/>
    </edge>
    <edge id=":J3_0" function="internal">
        <lane id=":J3_0_0" index="0" speed="3.65" length="4.67" shape="298.40,0.00 299.20,-1.20 300.00,-1.60 300.80,-1.20 301.60,0.00"/>
    </edge>
    <edge id=":J4_0" function="internal">
        <lane id=":J4_0_0" index="0" speed="3.65" length="4.67" shape="0.00,301.60 -1.20,300.80 -1.60,300.00 -1.20,299.20 0.00,298.40"/>
    </edge>

    <edge id="1I" from="J1" to="J0" priority="-1">
        <lane id="1I_0" index="0" speed="13.89" length="276.80" shape="282.40,600.00 282.40,323.20"/>
        <lane id="1I_1" index="1" speed="13.89" length="276.80" shape="285.60,600.00 285.60,323.20"/>
        <lane id="1I_2" index="2" speed="13.89" length="276.80" shape="288.80,600.00 288.80,323.20"/>
        <lane id="1I_3" index="3" speed="13.89" length="276.80" shape="292.00,600.00 292.00,323.20"/>
        <lane id="1I_4" index="4" speed="13.89" length="276.80" shape="295.20,600.00 295.20,323.20"/>
        <lane id="1I_5" index="5" speed="13.89" length="276.80" shape="298.40,600.00 298.40,323.20"/>
    </edge>
    <edge id="1O" from="J0" to="J1" priority="-1">
        <lane id="1O_0" index="0" speed="13.89" length="276.80" shape="311.20,323.20 311.20,600.00"/>
        <lane id="1O_1" index="1" speed="13.89" length="276.80" shape="308.00,323.20 308.00,600.00"/>
        <lane id="1O_2" index="2" speed="13.89" length="276.80" shape="304.80,323.20 304.80,600.00"/>
        <lane id="1O_3" index="3" speed="13.89" length="276.80" shape="301.60,323.20 301.60,600.00"/>
    </edge>
    <edge id="2I" from="J2" to="J0" priority="-1">
        <lane id="2I_0" index="0" speed="13.89" length="283.20" shape="600.00,317.60 316.80,317.60"/>
        <lane id="2I_1" index="1" speed="13.89" length="283.20" shape="600.00,314.40 316.80,314.40"/>
        <lane id="2I_2" index="2" speed="13.89" length="283.20" shape="600.00,311.20 316.80,311.20"/>
        <lane id="2I_3" index="3" speed="13.89" length="283.20" shape="600.00,308.00 316.80,308.00"/>
        <lane id="2I_4" index="4" speed="13.89" length="283.20" shape="600.00,304.80 316.80,304.80"/>
        <lane id="2I_5" index="5" speed="13.89" length="283.20" shape="600.00,301.60 316.80,301.60"/>
    </edge>
    <edge id="2O" from="J0" to="J2" priority="-1">
        <lane id="2O_0" index="0" speed="13.89" length="283.20" shape="316.80,282.40 600.00,282.40"/>
        <lane id="2O_1" index="1" speed="13.89" length="283.20" shape="316.80,285.60 600.00,285.60"/>
        <lane id="2O_2" index="2" speed="13.89" length="283.20" shape="316.80,288.80 600.00,288.80"/>
        <lane id="2O_3" index="3" speed="13.89" length="283.20" shape="316.80,292.00 600.00,292.00"/>
        <lane id="2O_4" index="4" speed="13.89" length="283.20" shape="316.80,295.20 600.00,295.20"/>
        <lane id="2O_5" index="5" speed="13.89" length="283.20" shape="316.80,298.40 600.00,298.40"/>
    </edge>
    <edge id="3I" from="J3" to="J0" priority="-1">
        <lane id="3I_0" index="0" speed="13.89" length="276.80" shape="311.20,0.00 311.20,276.80"/>
        <lane id="3I_1" index="1" speed="13.89" length="276.80" shape="308.00,0.00 308.00,276.80"/>
        <lane id="3I_2" index="2" speed="13.89" length="276.80" shape="304.80,0.00 304.80,276.80"/>
        <lane id="3I_3" index="3" speed="13.89" length="276.80" shape="301.60,0.00 301.60,276.80"/>
    </edge>
    <edge id="3O" from="J0" to="J3" priority="-1">
        <lane id="3O_0" index="0" speed="13.89" length="276.80" shape="282.40,276.80 282.40,0.00"/>
        <lane id="3O_1" index="1" speed="13.89" length="276.80" shape="285.60,276.80 285.60,0.00"/>
        <lane id="3O_2" index="2" speed="13.89" length="276.80" shape="288.80,276.80 288.80,0.00"/>
        <lane id="3O_3" index="3" speed="13.89" length="276.80" shape="292.00,276.80 292.00,0.00"/>
        <lane id="3O_4" index="4" speed="13.89" length="276.80" shape="295.20,276.80 295.20,0.00"/>
        <lane id="3O_5" index="5" speed="13.89" length="276.80" shape="298.40,276.80 298.40,0.00"/>
    </edge>
    <edge id="4I" from="J4" to="J0" priority="-1">
        <lane id="4I_0" index="0" speed="13.89" length="276.80" shape="0.00,282.40 276.80,282.40"/>
        <lane id="4I_1" index="1" speed="13.89" length="276.80" shape="0.00,285.60 276.80,285.60"/>
        <lane id="4I_2" index="2" speed="13.89" length="276.80" shape="0.00,288.80 276.80,288.80"/>
        <lane id="4I_3" index="3" speed="13.89" length="276.80" shape="0.00,292.00 276.80,292.00"/>
        <lane id="4I_4" index="4" speed="13.89" length="276.80" shape="0.00,295.20 276.80,295.20"/>
        <lane id="4I_5" index="5" speed="13.89" length="276.80" shape="0.00,298.40 276.80,298.40"/>
    </edge>
    <edge id="4O" from="J0" to="J4" priority="-1">
        <lane id="4O_0" index="0" speed="13.89" length="276.80" shape="276.80,317.60 0.00,317.60"/>
        <lane id="4O_1" index="1" speed="13.89" length="276.80" shape="276.80,314.40 0.00,314.40"/>
        <lane id="4O_2" index="2" speed="13.89" length="276.80" shape="276.80,311.20 0.00,311.20"/>
        <lane id="4O_3" index="3" speed="13.89" length="276.80" shape="276.80,308.00 0.00,308.00"/>
        <lane id="4O_4" index="4" speed="13.89" length="276.80" shape="276.80,304.80 0.00,304.80"/>
        <lane id="4O_5" index="5" speed="13.89" length="276.80" shape="276.80,301.60 0.00,301.60"/>
    </edge>

    <tlLogic id="J0" type="static" programID="0" offset="0">
        <phase duration="15" state="rrrGGGGrrrrrrrrGGGrrrr"/>
        <phase duration="3"  state="rrrYYYYrrrrrrrrYYYrrrr"/>
        <phase duration="15" state="GGGrrrrrrrrrGGGrrrrrrr"/>
        <phase duration="3"  state="GGYrrrrrrrrrGGYrrrrrrr"/>
        <phase duration="15" state="GGrrrrrrrGGGGGrrrrrrGG"/>
        <phase duration="3"  state="YYrrrrrrrYYYYYrrrrrrYY"/>
        <phase duration="15" state="rrrrrrGGGrrrrrrrGGGGrr"/>
        <phase duration="3"  state="rrrrrrGYYrrrrrrrGGYYrr"/>
    </tlLogic>

    <junction id="J0" type="traffic_light" x="300.00" y="300.00" incLanes="1I_0 1I_1 1I_2 1I_3 1I_4 1I_5 2I_0 2I_1 2I_2 2I_3 2I_4 2I_5 3I_0 3I_1 3I_2 3I_3 4I_0 4I_1 4I_2 4I_3 4I_4 4I_5" intLanes=":J0_0_0 :J0_0_1 :J0_2_0 :J0_3_0 :J0_3_1 :J0_3_2 :J0_6_0 :J0_7_0 :J0_7_1 :J0_9_0 :J0_9_1 :J0_9_2 :J0_12_0 :J0_12_1 :J0_14_0 :J0_15_0 :J0_16_0 :J0_16_1 :J0_18_0 :J0_18_1 :J0_20_0 :J0_20_1" shape="280.80,323.20 312.80,323.20 313.24,320.98 313.80,320.20 314.58,319.64 315.58,319.31 316.80,319.20 316.80,280.80 314.58,280.36 313.80,279.80 313.24,279.02 312.91,278.02 312.80,276.80 280.80,276.80 280.36,279.02 279.80,279.80 279.02,280.36 278.02,280.69 276.80,280.80 276.80,319.20 279.02,319.64 279.80,320.20 280.36,320.98 280.69,321.98">
        <request index="0"  response="0000000000000110000000" foes="0000000000000110000000" cont="0"/>
        <request index="1"  response="0000000000000110000000" foes="0000000000000110000000" cont="0"/>
        <request index="2"  response="1111000000000110000000" foes="1111001000000110000000" cont="0"/>
        <request index="3"  response="1111000100111110000000" foes="1111000100111110000000" cont="0"/>
        <request index="4"  response="1111000100111110000000" foes="1111000100111110000000" cont="0"/>
        <request index="5"  response="1111000100111110000000" foes="1111000100111110000000" cont="0"/>
        <request index="6"  response="0000000000000000000000" foes="0000000000000000000000" cont="0"/>
        <request index="7"  response="0000000000000000000000" foes="1100000100000000111111" cont="0"/>
        <request index="8"  response="0000000000000000000000" foes="1100000100000000111111" cont="0"/>
        <request index="9"  response="0011000000000000000000" foes="0011001100000000111000" cont="0"/>
        <request index="10" response="0011000000000000000000" foes="0011001100000000111000" cont="0"/>
        <request index="11" response="0011000000000000000000" foes="0011001100000000111000" cont="0"/>
        <request index="12" response="0000000000000000000000" foes="0000000000000000000000" cont="0"/>
        <request index="13" response="0000000000000000000000" foes="0000000000000000000000" cont="0"/>
        <request index="14" response="1111000000111110000000" foes="1111000000111110111000" cont="0"/>
        <request index="15" response="1111000000111000000100" foes="1111000000111000000100" cont="0"/>
        <request index="16" response="0000000000000000000000" foes="0000000000000000000000" cont="0"/>
        <request index="17" response="0000000000000000000000" foes="0000000000000000000000" cont="0"/>
        <request index="18" response="0000000000000000000000" foes="0000001100111000111100" cont="0"/>
        <request index="19" response="0000000000000000000000" foes="0000001100111000111100" cont="0"/>
        <request index="20" response="0000000000000110000000" foes="0000001100000110111100" cont="0"/>
        <request index="21" response="0000000000000110000000" foes="0000001100000110111100" cont="0"/>
    </junction>
    <junction id="J1" type="priority" x="300.00" y="600.00" incLanes="1O_0 1O_1 1O_2 1O_3" intLanes=":J1_0_0" shape="300.00,600.00 312.80,600.00 300.00,600.00">
        <request index="0" response="0" foes="0" cont="0"/>
    </junction>
    <junction id="J2" type="priority" x="600.00" y="300.00" incLanes="2O_0 2O_1 2O_2 2O_3 2O_4 2O_5" intLanes=":J2_0_0" shape="600.00,300.00 600.00,280.80 600.00,300.00">
        <request index="0" response="0" foes="0" cont="0"/>
    </junction>
    <junction id="J3" type="priority" x="300.00" y="0.00" incLanes="3O_0 3O_1 3O_2 3O_3 3O_4 3O_5" intLanes=":J3_0_0" shape="300.00,0.00 280.80,0.00 300.00,0.00">
        <request index="0" response="0" foes="0" cont="0"/>
    </junction>
    <junction id="J4" type="priority" x="0.00" y="300.00" incLanes="4O_0 4O_1 4O_2 4O_3 4O_4 4O_5" intLanes=":J4_0_0" shape="0.00,300.00 0.00,319.20 0.00,300.00">
        <request index="0" response="0" foes="0" cont="0"/>
    </junction>

    <connection from="1I" to="4O" fromLane="0" toLane="0" contPos="0.00" via=":J0_0_0" tl="J0" linkIndex="0" dir="r" state="o"/>
    <connection from="1I" to="4O" fromLane="1" toLane="1" contPos="0.00" via=":J0_0_1" tl="J0" linkIndex="1" dir="r" state="o"/>
    <connection from="1I" to="3O" fromLane="2" toLane="2" contPos="0.00" via=":J0_2_0" tl="J0" linkIndex="2" dir="s" state="o"/>
    <connection from="1I" to="2O" fromLane="3" toLane="3" contPos="0.00" via=":J0_3_0" tl="J0" linkIndex="3" dir="l" state="o"/>
    <connection from="1I" to="2O" fromLane="4" toLane="4" contPos="0.00" via=":J0_3_1" tl="J0" linkIndex="4" dir="l" state="o"/>
    <connection from="1I" to="2O" fromLane="5" toLane="5" contPos="0.00" via=":J0_3_2" tl="J0" linkIndex="5" dir="l" state="o"/>
    <connection from="1O" to="1I" fromLane="3" toLane="5" via=":J1_0_0" dir="t" state="M"/>
    <connection from="2I" to="1O" fromLane="0" toLane="0" contPos="0.00" via=":J0_6_0" tl="J0" linkIndex="6" dir="r" state="O"/>
    <connection from="2I" to="4O" fromLane="1" toLane="1" contPos="0.00" via=":J0_7_0" tl="J0" linkIndex="7" dir="s" state="O"/>
    <connection from="2I" to="4O" fromLane="2" toLane="2" contPos="0.00" via=":J0_7_1" tl="J0" linkIndex="8" dir="s" state="O"/>
    <connection from="2I" to="3O" fromLane="3" toLane="3" contPos="0.00" via=":J0_9_0" tl="J0" linkIndex="9" dir="l" state="o"/>
    <connection from="2I" to="3O" fromLane="4" toLane="4" contPos="0.00" via=":J0_9_1" tl="J0" linkIndex="10" dir="l" state="o"/>
    <connection from="2I" to="3O" fromLane="5" toLane="5" contPos="0.00" via=":J0_9_2" tl="J0" linkIndex="11" dir="l" state="o"/>
    <connection from="2O" to="2I" fromLane="5" toLane="5" via=":J2_0_0" dir="t" state="M"/>
    <connection from="3I" to="2O" fromLane="0" toLane="0" contPos="0.00" via=":J0_12_0" tl="J0" linkIndex="12" dir="r" state="O"/>
    <connection from="3I" to="2O" fromLane="1" toLane="1" contPos="0.00" via=":J0_12_1" tl="J0" linkIndex="13" dir="r" state="O"/>
    <connection from="3I" to="1O" fromLane="2" toLane="2" contPos="0.00" via=":J0_14_0" tl="J0" linkIndex="14" dir="s" state="o"/>
    <connection from="3I" to="4O" fromLane="3" toLane="5" contPos="0.00" via=":J0_15_0" tl="J0" linkIndex="15" dir="l" state="o"/>
    <connection from="3O" to="3I" fromLane="5" toLane="3" via=":J3_0_0" dir="t" state="M"/>
    <connection from="4I" to="3O" fromLane="0" toLane="0" contPos="0.00" via=":J0_16_0" tl="J0" linkIndex="16" dir="r" state="O"/>
    <connection from="4I" to="3O" fromLane="1" toLane="1" contPos="0.00" via=":J0_16_1" tl="J0" linkIndex="17" dir="r" state="O"/>
    <connection from="4I" to="2O" fromLane="2" toLane="2" contPos="0.00" via=":J0_18_0" tl="J0" linkIndex="18" dir="s" state="O"/>
    <connection from="4I" to="2O" fromLane="3" toLane="3" contPos="0.00" via=":J0_18_1" tl="J0" linkIndex="19" dir="s" state="O"/>
    <connection from="4I" to="1O" fromLane="4" toLane="2" contPos="0.00" via=":J0_20_0" tl="J0" linkIndex="20" dir="l" state="o"/>
    <connection from="4I" to="1O" fromLane="5" toLane="3" contPos="0.00" via=":J0_20_1" tl="J0" linkIndex="21" dir="l" state="o"/>
    <connection from="4O" to="4I" fromLane="5" toLane="5" via=":J4_0_0" dir="t" state="M"/>

    <connection from=":J0_0" to="4O" fromLane="0" toLane="0" dir="r" state="M"/>
    <connection from=":J0_0" to="4O" fromLane="1" toLane="1" dir="r" state="M"/>
    <connection from=":J0_2" to="3O" fromLane="0" toLane="2" dir="s" state="M"/>
    <connection from=":J0_3" to="2O" fromLane="0" toLane="3" dir="l" state="M"/>
    <connection from=":J0_3" to="2O" fromLane="1" toLane="4" dir="l" state="M"/>
    <connection from=":J0_3" to="2O" fromLane="2" toLane="5" dir="l" state="M"/>
    <connection from=":J0_6" to="1O" fromLane="0" toLane="0" dir="r" state="M"/>
    <connection from=":J0_7" to="4O" fromLane="0" toLane="1" dir="s" state="M"/>
    <connection from=":J0_7" to="4O" fromLane="1" toLane="2" dir="s" state="M"/>
    <connection from=":J0_9" to="3O" fromLane="0" toLane="3" dir="l" state="M"/>
    <connection from=":J0_9" to="3O" fromLane="1" toLane="4" dir="l" state="M"/>
    <connection from=":J0_9" to="3O" fromLane="2" toLane="5" dir="l" state="M"/>
    <connection from=":J0_12" to="2O" fromLane="0" toLane="0" dir="r" state="M"/>
    <connection from=":J0_12" to="2O" fromLane="1" toLane="1" dir="r" state="M"/>
    <connection from=":J0_14" to="1O" fromLane="0" toLane="2" dir="s" state="M"/>
    <connection from=":J0_15" to="4O" fromLane="0" toLane="5" dir="l" state="M"/>
    <connection from=":J0_16" to="3O" fromLane="0" toLane="0" dir="r" state="M"/>
    <connection from=":J0_16" to="3O" fromLane="1" toLane="1" dir="r" state="M"/>
    <connection from=":J0_18" to="2O" fromLane="0" toLane="2" dir="s" state="M"/>
    <connection from=":J0_18" to="2O" fromLane="1" toLane="3" dir="s" state="M"/>
    <connection from=":J0_20" to="1O" fromLane="0" toLane="2" dir="l" state="M"/>
    <connection from=":J0_20" to="1O" fromLane="1" toLane="3" dir="l" state="M"/>
    <connection from=":J1_0" to="1I" fromLane="0" toLane="5" dir="t" state="M"/>
    <connection from=":J2_0" to="2I" fromLane="0" toLane="5" dir="t" state="M"/>
    <connection from=":J3_0" to="3I" fromLane="0" toLane="3" dir="t" state="M"/>
    <connection from=":J4_0" to="4I" fromLane="0" toLane="5" dir="t" state="M"/>

</net>
