<?xml version="1.0" encoding="UTF-8"?>

<!-- generated on 2022-04-07 14:05:57 by Eclipse SUMO netconvert Version 1.9.2
<configuration xmlns:xsi="http://www.w3.org/2001/XMLSchema-instance" xsi:noNamespaceSchemaLocation="http://sumo.dlr.de/xsd/netconvertConfiguration.xsd">

    <input>
        <node-files value="network/inputs/input.nod.xml"/>
        <edge-files value="network/inputs/input_5_6_3_5.edg.xml"/>
        <connection-files value="network/inputs/input_rrssl_rrssll_rsl_rsssl.con.xml"/>
        <tllogic-files value="network/inputs/input_rrssl_rrssll_rsl_rsssl.tll.xml"/>
    </input>

    <output>
        <output-file value="network/rrssl_rrssll_rsl_rsssl.net.xml"/>
    </output>

    <report>
        <no-warnings value="true"/>
        <aggregate-warnings value="5"/>
        <log value="network/log/rrssl_rrssll_rsl_rsssl.log.xml"/>
    </report>

</configuration>
-->

<net version="1.9" junctionCornerDetail="5" limitTurnSpeed="5.50" xmlns:xsi="http://www.w3.org/2001/XMLSchema-instance" xsi:noNamespaceSchemaLocation="http://sumo.dlr.de/xsd/net_file.xsd">

    <location netOffset="300.00,300.00" convBoundary="0.00,0.00,600.00,600.00" origBoundary="-300.00,-300.00,300.00,300.00" projParameter="!"/>

    <edge id=":J0_0" function="internal">
        <lane id=":J0_0_0" index="0" speed="6.51" length="9.03" shape="285.60,323.20 285.25,320.75 284.20,319.00 282.45,317.95 280.00,317.60"/>
        <lane id=":J0_0_1" index="1" speed="8.00" length="14.19" shape="288.80,323.20 288.25,319.35 286.60,316.60 283.85,314.95 280.00,314.40"/>
    </edge>
    <edge id=":J0_2" function="internal">
        <lane id=":J0_2_0" index="0" speed="13.89" length="43.20" shape="292.00,323.20 292.00,280.00"/>
        <lane id=":J0_2_1" index="1" speed="13.89" length="43.20" shape="295.20,323.20 295.20,280.00"/>
    </edge>
    <edge id=":J0_4" function="internal">
        <lane id=":J0_4_0" index="0" speed="11.89" length="32.62" shape="298.40,323.20 299.35,312.35 302.20,304.60 306.95,299.95 313.60,298.40"/>
    </edge>
    <edge id=":J0_5" function="internal">
        <lane id=":J0_5_0" index="0" speed="6.51" length="9.03" shape="313.60,317.60 311.15,317.95 309.40,319.00 308.35,320.75 308.00,323.20"/>
        <lane id=":J0_5_1" index="1" speed="8.00" length="14.19" shape="313.60,314.40 309.75,314.95 307.00,316.60 305.35,319.35 304.80,323.20"/>
    </edge>
    <edge id=":J0_7" function="internal">
        <lane id=":J0_7_0" index="0" speed="13.89" length="33.60" shape="313.60,311.20 280.00,311.20"/>
        <lane id=":J0_7_1" index="1" speed="13.89" length="33.60" shape="313.60,308.00 280.00,308.00"/>
    </edge>
    <edge id=":J0_9" function="internal">
        <lane id=":J0_9_0" index="0" speed="12.30" length="34.99" shape="313.60,304.80 305.55,303.25 299.80,298.60 296.35,290.85 295.20,280.00"/>
        <lane id=":J0_9_1" index="1" speed="11.39" length="29.85" shape="313.60,301.60 306.95,300.25 302.20,296.20 299.35,289.45 298.40,280.00"/>
    </edge>
    <edge id=":J0_11" function="internal">
        <lane id=":J0_11_0" index="0" speed="6.51" length="9.03" shape="308.00,280.00 308.35,282.45 309.40,284.20 311.15,285.25 313.60,285.60"/>
    </edge>
    <edge id=":J0_12" function="internal">
        <lane id=":J0_12_0" index="0" speed="13.89" length="43.20" shape="304.80,280.00 304.80,323.20"/>
    </edge>
    <edge id=":J0_13" function="internal">
        <lane id=":J0_13_0" index="0" speed="12.28" length="34.84" shape="301.60,280.00 300.25,289.45 296.20,296.20 289.45,300.25 280.00,301.60"/>
    </edge>
    <edge id=":J0_14" function="internal">
        <lane id=":J0_14_0" index="0" speed="6.51" length="9.03" shape="280.00,285.60 282.45,285.25 284.20,284.20 285.25,282.45 285.60,280.00"/>
    </edge>
    <edge id=":J0_15" function="internal">
        <lane id=":J0_15_0" index="0" speed="13.89" length="33.60" shape="280.00,288.80 313.60,288.80"/>
        <lane id=":J0_15_1" index="1" speed="13.89" length="33.60" shape="280.00,292.00 313.60,292.00"/>
        <lane id=":J0_15_2" index="2" speed="13.89" length="33.60" shape="280.00,295.20 313.60,295.20"/>
    </edge>
    <edge id=":J0_18" function="internal">
        <lane id=":J0_18_0" index="0" speed="12.72" length="37.45" shape="280.00,298.40 289.45,299.95 296.20,304.60 300.25,312.35 301.60,323.20"/>
    </edge>
    <edge id=":J1_0" function="internal">
        <lane id=":J1_0_0" index="0" speed="3.65" length="4.67" shape="301.60,600.00 300.80,601.20 300.00,601.60 299.20,601.20 298.40,600.00"/>
    </edge>
    <edge id=":J2_0" function="internal">
        <lane id=":J2_0_0" index="0" speed="3.65" length="4.67" shape="600.00,298.40 601.20,299.20 601.60,300.00 601.20,300.80 600.00,301.60"/>
    </edge>
    <edge id=":J3_0" function="internal">
        <lane id=":J3_0_0" index="0" speed="3.65" length="4.67" shape="298.40,0.00 299.20,-1.20 300.00,-1.60 300.80,-1.20 301.60,0.00"/>
    </edge>
    <edge id=":J4_0" function="internal">
        <lane id=":J4_0_0" index="0" speed="3.65" length="4.67" shape="0.00,301.60 -1.20,300.80 -1.60,300.00 -1.20,299.20 0.00,298.40"/>
    </edge>

    <edge id="1I" from="J1" to="J0" priority="-1">
        <lane id="1I_0" index="0" speed="13.89" length="276.80" shape="285.60,600.00 285.60,323.20"/>
        <lane id="1I_1" index="1" speed="13.89" length="276.80" shape="288.80,600.00 288.80,323.20"/>
        <lane id="1I_2" index="2" speed="13.89" length="276.80" shape="292.00,600.00 292.00,323.20"/>
        <lane id="1I_3" index="3" speed="13.89" length="276.80" shape="295.20,600.00 295.20,323.20"/>
        <lane id="1I_4" index="4" speed="13.89" length="276.80" shape="298.40,600.00 298.40,323.20"/>
    </edge>
    <edge id="1O" from="J0" to="J1" priority="-1">
        <lane id="1O_0" index="0" speed="13.89" length="276.80" shape="308.00,323.20 308.00,600.00"/>
        <lane id="1O_1" index="1" speed="13.89" length="276.80" shape="304.80,323.20 304.80,600.00"/>
        <lane id="1O_2" index="2" speed="13.89" length="276.80" shape="301.60,323.20 301.60,600.00"/>
    </edge>
    <edge id="2I" from="J2" to="J0" priority="-1">
        <lane id="2I_0" index="0" speed="13.89" length="286.40" shape="600.00,317.60 313.60,317.60"/>
        <lane id="2I_1" index="1" speed="13.89" length="286.40" shape="600.00,314.40 313.60,314.40"/>
        <lane id="2I_2" index="2" speed="13.89" length="286.40" shape="600.00,311.20 313.60,311.20"/>
        <lane id="2I_3" index="3" speed="13.89" length="286.40" shape="600.00,308.00 313.60,308.00"/>
        <lane id="2I_4" index="4" speed="13.89" length="286.40" shape="600.00,304.80 313.60,304.80"/>
        <lane id="2I_5" index="5" speed="13.89" length="286.40" shape="600.00,301.60 313.60,301.60"/>
    </edge>
    <edge id="2O" from="J0" to="J2" priority="-1">
        <lane id="2O_0" index="0" speed="13.89" length="286.40" shape="313.60,285.60 600.00,285.60"/>
        <lane id="2O_1" index="1" speed="13.89" length="286.40" shape="313.60,288.80 600.00,288.80"/>
        <lane id="2O_2" index="2" speed="13.89" length="286.40" shape="313.60,292.00 600.00,292.00"/>
        <lane id="2O_3" index="3" speed="13.89" length="286.40" shape="313.60,295.20 600.00,295.20"/>
        <lane id="2O_4" index="4" speed="13.89" length="286.40" shape="313.60,298.40 600.00,298.40"/>
    </edge>
    <edge id="3I" from="J3" to="J0" priority="-1">
        <lane id="3I_0" index="0" speed="13.89" length="280.00" shape="308.00,0.00 308.00,280.00"/>
        <lane id="3I_1" index="1" speed="13.89" length="280.00" shape="304.80,0.00 304.80,280.00"/>
        <lane id="3I_2" index="2" speed="13.89" length="280.00" shape="301.60,0.00 301.60,280.00"/>
    </edge>
    <edge id="3O" from="J0" to="J3" priority="-1">
        <lane id="3O_0" index="0" speed="13.89" length="280.00" shape="285.60,280.00 285.60,0.00"/>
        <lane id="3O_1" index="1" speed="13.89" length="280.00" shape="288.80,280.00 288.80,0.00"/>
        <lane id="3O_2" index="2" speed="13.89" length="280.00" shape="292.00,280.00 292.00,0.00"/>
        <lane id="3O_3" index="3" speed="13.89" length="280.00" shape="295.20,280.00 295.20,0.00"/>
        <lane id="3O_4" index="4" speed="13.89" length="280.00" shape="298.40,280.00 298.40,0.00"/>
    </edge>
    <edge id="4I" from="J4" to="J0" priority="-1">
        <lane id="4I_0" index="0" speed="13.89" length="280.00" shape="0.00,285.60 280.00,285.60"/>
        <lane id="4I_1" index="1" speed="13.89" length="280.00" shape="0.00,288.80 280.00,288.80"/>
        <lane id="4I_2" index="2" speed="13.89" length="280.00" shape="0.00,292.00 280.00,292.00"/>
        <lane id="4I_3" index="3" speed="13.89" length="280.00" shape="0.00,295.20 280.00,295.20"/>
        <lane id="4I_4" index="4" speed="13.89" length="280.00" shape="0.00,298.40 280.00,298.40"/>
    </edge>
    <edge id="4O" from="J0" to="J4" priority="-1">
        <lane id="4O_0" index="0" speed="13.89" length="280.00" shape="280.00,317.60 0.00,317.60"/>
        <lane id="4O_1" index="1" speed="13.89" length="280.00" shape="280.00,314.40 0.00,314.40"/>
        <lane id="4O_2" index="2" speed="13.89" length="280.00" shape="280.00,311.20 0.00,311.20"/>
        <lane id="4O_3" index="3" speed="13.89" length="280.00" shape="280.00,308.00 0.00,308.00"/>
        <lane id="4O_4" index="4" speed="13.89" length="280.00" shape="280.00,304.80 0.00,304.80"/>
        <lane id="4O_5" index="5" speed="13.89" length="280.00" shape="280.00,301.60 0.00,301.60"/>
    </edge>

    <tlLogic id="J0" type="static" programID="0" offset="0">
        <phase duration="15" state="rrrrGGGrrrrrrGGrrrr"/>
        <phase duration="3"  state="rrrrYYYrrrrrrYYrrrr"/>
        <phase duration="15" state="GGGGrrrrrrrGGrrrrrr"/>
        <phase duration="3"  state="GGYYrrrrrrrGYrrrrrr"/>
        <phase duration="15" state="GGrrrrrrrGGGrrrrrrG"/>
        <phase duration="3"  state="YYrrrrrrrYYYrrrrrrY"/>
        <phase duration="15" state="rrrrrGGGGrrrrrGGGGr"/>
        <phase duration="3"  state="rrrrrGGYYrrrrrGYYYr"/>
    </tlLogic>

    <junction id="J0" type="traffic_light" x="300.00" y="300.00" incLanes="1I_0 1I_1 1I_2 1I_3 1I_4 2I_0 2I_1 2I_2 2I_3 2I_4 2I_5 3I_0 3I_1 3I_2 4I_0 4I_1 4I_2 4I_3 4I_4" intLanes=":J0_0_0 :J0_0_1 :J0_2_0 :J0_2_1 :J0_4_0 :J0_5_0 :J0_5_1 :J0_7_0 :J0_7_1 :J0_9_0 :J0_9_1 :J0_11_0 :J0_12_0 :J0_13_0 :J0_14_0 :J0_15_0 :J0_15_1 :J0_15_2 :J0_18_0" shape="284.00,323.20 309.60,323.20 310.04,320.98 310.60,320.20 311.38,319.64 312.38,319.31 313.60,319.20 313.60,284.00 311.38,283.56 310.60,283.00 310.04,282.22 309.71,281.22 309.60,280.00 284.00,280.00 283.56,282.22 283.00,283.00 282.22,283.56 281.22,283.89 280.00,284.00 280.00,319.20 282.22,319.64 283.00,320.20 283.56,320.98 283.89,321.98">
        <request index="0"  response="0000000000000000000" foes="0000000000000000000" cont="0"/>
        <request index="1"  response="0000000000000000000" foes="0000000000000000000" cont="0"/>
        <request index="2"  response="1111000011110000000" foes="1111010011110000000" cont="0"/>
        <request index="3"  response="1111000011110000000" foes="1111010011110000000" cont="0"/>
        <request index="4"  response="1000001011110000000" foes="1000001011110000000" cont="0"/>
        <request index="5"  response="0000000000000000000" foes="0000001000000000000" cont="0"/>
        <request index="6"  response="0000000000000000000" foes="0000001000000000000" cont="0"/>
        <request index="7"  response="0000000000000000000" foes="1000001000000011100" cont="0"/>
        <request index="8"  response="0000000000000000000" foes="1000001000000011100" cont="0"/>
        <request index="9"  response="0111000000000000000" foes="0111011000000011100" cont="0"/>
        <request index="10" response="0111000000000000000" foes="0111011000000011100" cont="0"/>
        <request index="11" response="0000000000000000000" foes="0000000000000000000" cont="0"/>
        <request index="12" response="0111000011111100000" foes="0111000011111110000" cont="0"/>
        <request index="13" response="1111000011000001100" foes="1111000011000001100" cont="0"/>
        <request index="14" response="0000000000000000000" foes="0000000000000000000" cont="0"/>
        <request index="15" response="0000000000000000000" foes="0000011011000001100" cont="0"/>
        <request index="16" response="0000000000000000000" foes="0000011011000001100" cont="0"/>
        <request index="17" response="0000000000000000000" foes="0000011011000001100" cont="0"/>
        <request index="18" response="0000000000110000000" foes="0000010000110011100" cont="0"/>
    </junction>
    <junction id="J1" type="priority" x="300.00" y="600.00" incLanes="1O_0 1O_1 1O_2" intLanes=":J1_0_0" shape="300.00,600.00 309.60,600.00 300.00,600.00">
        <request index="0" response="0" foes="0" cont="0"/>
    </junction>
    <junction id="J2" type="priority" x="600.00" y="300.00" incLanes="2O_0 2O_1 2O_2 2O_3 2O_4" intLanes=":J2_0_0" shape="600.00,300.00 600.00,284.00 600.00,300.00">
        <request index="0" response="0" foes="0" cont="0"/>
    </junction>
    <junction id="J3" type="priority" x="300.00" y="0.00" incLanes="3O_0 3O_1 3O_2 3O_3 3O_4" intLanes=":J3_0_0" shape="300.00,0.00 284.00,0.00 300.00,0.00">
        <request index="0" response="0" foes="0" cont="0"/>
    </junction>
    <junction id="J4" type="priority" x="0.00" y="300.00" incLanes="4O_0 4O_1 4O_2 4O_3 4O_4 4O_5" intLanes=":J4_0_0" shape="0.00,300.00 0.00,319.20 0.00,300.00">
        <request index="0" response="0" foes="0" cont="0"/>
    </junction>

    <connection from="1I" to="4O" fromLane="0" toLane="0" contPos="0.00" via=":J0_0_0" tl="J0" linkIndex="0" dir="r" state="O"/>
    <connection from="1I" to="4O" fromLane="1" toLane="1" contPos="0.00" via=":J0_0_1" tl="J0" linkIndex="1" dir="r" state="O"/>
    <connection from="1I" to="3O" fromLane="2" toLane="2" contPos="0.00" via=":J0_2_0" tl="J0" linkIndex="2" dir="s" state="o"/>
    <connection from="1I" to="3O" fromLane="3" toLane="3" contPos="0.00" via=":J0_2_1" tl="J0" linkIndex="3" dir="s" state="o"/>
    <connection from="1I" to="2O" fromLane="4" toLane="4" contPos="0.00" via=":J0_4_0" tl="J0" linkIndex="4" dir="l" state="o"/>
    <connection from="1O" to="1I" fromLane="2" toLane="4" via=":J1_0_0" dir="t" state="M"/>
    <connection from="2I" to="1O" fromLane="0" toLane="0" contPos="0.00" via=":J0_5_0" tl="J0" linkIndex="5" dir="r" state="O"/>
    <connection from="2I" to="1O" fromLane="1" toLane="1" contPos="0.00" via=":J0_5_1" tl="J0" linkIndex="6" dir="r" state="O"/>
    <connection from="2I" to="4O" fromLane="2" toLane="2" contPos="0.00" via=":J0_7_0" tl="J0" linkIndex="7" dir="s" state="O"/>
    <connection from="2I" to="4O" fromLane="3" toLane="3" contPos="0.00" via=":J0_7_1" tl="J0" linkIndex="8" dir="s" state="O"/>
    <connection from="2I" to="3O" fromLane="4" toLane="3" contPos="0.00" via=":J0_9_0" tl="J0" linkIndex="9" dir="l" state="o"/>
    <connection from="2I" to="3O" fromLane="5" toLane="4" contPos="0.00" via=":J0_9_1" tl="J0" linkIndex="10" dir="l" state="o"/>
    <connection from="2O" to="2I" fromLane="4" toLane="5" via=":J2_0_0" dir="t" state="M"/>
    <connection from="3I" to="2O" fromLane="0" toLane="0" contPos="0.00" via=":J0_11_0" tl="J0" linkIndex="11" dir="r" state="O"/>
    <connection from="3I" to="1O" fromLane="1" toLane="1" contPos="0.00" via=":J0_12_0" tl="J0" linkIndex="12" dir="s" state="o"/>
    <connection from="3I" to="4O" fromLane="2" toLane="5" contPos="0.00" via=":J0_13_0" tl="J0" linkIndex="13" dir="l" state="o"/>
    <connection from="3O" to="3I" fromLane="4" toLane="2" via=":J3_0_0" dir="t" state="M"/>
    <connection from="4I" to="3O" fromLane="0" toLane="0" contPos="0.00" via=":J0_14_0" tl="J0" linkIndex="14" dir="r" state="O"/>
    <connection from="4I" to="2O" fromLane="1" toLane="1" contPos="0.00" via=":J0_15_0" tl="J0" linkIndex="15" dir="s" state="O"/>
    <connection from="4I" to="2O" fromLane="2" toLane="2" contPos="0.00" via=":J0_15_1" tl="J0" linkIndex="16" dir="s" state="O"/>
    <connection from="4I" to="2O" fromLane="3" toLane="3" contPos="0.00" via=":J0_15_2" tl="J0" linkIndex="17" dir="s" state="O"/>
    <connection from="4I" to="1O" fromLane="4" toLane="2" contPos="0.00" via=":J0_18_0" tl="J0" linkIndex="18" dir="l" state="o"/>
    <connection from="4O" to="4I" fromLane="5" toLane="4" via=":J4_0_0" dir="t" state="M"/>

    <connection from=":J0_0" to="4O" fromLane="0" toLane="0" dir="r" state="M"/>
    <connection from=":J0_0" to="4O" fromLane="1" toLane="1" dir="r" state="M"/>
    <connection from=":J0_2" to="3O" fromLane="0" toLane="2" dir="s" state="M"/>
    <connection from=":J0_2" to="3O" fromLane="1" toLane="3" dir="s" state="M"/>
    <connection from=":J0_4" to="2O" fromLane="0" toLane="4" dir="l" state="M"/>
    <connection from=":J0_5" to="1O" fromLane="0" toLane="0" dir="r" state="M"/>
    <connection from=":J0_5" to="1O" fromLane="1" toLane="1" dir="r" state="M"/>
    <connection from=":J0_7" to="4O" fromLane="0" toLane="2" dir="s" state="M"/>
    <connection from=":J0_7" to="4O" fromLane="1" toLane="3" dir="s" state="M"/>
    <connection from=":J0_9" to="3O" fromLane="0" toLane="3" dir="l" state="M"/>
    <connection from=":J0_9" to="3O" fromLane="1" toLane="4" dir="l" state="M"/>
    <connection from=":J0_11" to="2O" fromLane="0" toLane="0" dir="r" state="M"/>
    <connection from=":J0_12" to="1O" fromLane="0" toLane="1" dir="s" state="M"/>
    <connection from=":J0_13" to="4O" fromLane="0" toLane="5" dir="l" state="M"/>
    <connection from=":J0_14" to="3O" fromLane="0" toLane="0" dir="r" state="M"/>
    <connection from=":J0_15" to="2O" fromLane="0" toLane="1" dir="s" state="M"/>
    <connection from=":J0_15" to="2O" fromLane="1" toLane="2" dir="s" state="M"/>
    <connection from=":J0_15" to="2O" fromLane="2" toLane="3" dir="s" state="M"/>
    <connection from=":J0_18" to="1O" fromLane="0" toLane="2" dir="l" state="M"/>
    <connection from=":J1_0" to="1I" fromLane="0" toLane="4" dir="t" state="M"/>
    <connection from=":J2_0" to="2I" fromLane="0" toLane="5" dir="t" state="M"/>
    <connection from=":J3_0" to="3I" fromLane="0" toLane="2" dir="t" state="M"/>
    <connection from=":J4_0" to="4I" fromLane="0" toLane="4" dir="t" state="M"/>

</net>
