<?xml version="1.0" encoding="UTF-8"?>

<!-- generated on 2022-04-07 14:06:12 by Eclipse SUMO netconvert Version 1.9.2
<configuration xmlns:xsi="http://www.w3.org/2001/XMLSchema-instance" xsi:noNamespaceSchemaLocation="http://sumo.dlr.de/xsd/netconvertConfiguration.xsd">

    <input>
        <node-files value="network/inputs/input.nod.xml"/>
        <edge-files value="network/inputs/input_6_4_4_6.edg.xml"/>
        <connection-files value="network/inputs/input_rrssll_rsll_rrsl_rrslll.con.xml"/>
        <tllogic-files value="network/inputs/input_rrssll_rsll_rrsl_rrslll.tll.xml"/>
    </input>

    <output>
        <output-file value="network/rrssll_rsll_rrsl_rrslll.net.xml"/>
    </output>

    <report>
        <no-warnings value="true"/>
        <aggregate-warnings value="5"/>
        <log value="network/log/rrssll_rsll_rrsl_rrslll.log.xml"/>
    </report>

</configuration>
-->

<net version="1.9" junctionCornerDetail="5" limitTurnSpeed="5.50" xmlns:xsi="http://www.w3.org/2001/XMLSchema-instance" xsi:noNamespaceSchemaLocation="http://sumo.dlr.de/xsd/net_file.xsd">

    <location netOffset="300.00,300.00" convBoundary="0.00,0.00,600.00,600.00" origBoundary="-300.00,-300.00,300.00,300.00" projParameter="!"/>

    <edge id=":J0_0" function="internal">
        <lane id=":J0_0_0" index="0" speed="6.51" length="9.03" shape="282.40,316.80 282.05,314.35 281.00,312.60 279.25,311.55 276.80,311.20"/>
        <lane id=":J0_0_1" index="1" speed="8.00" length="14.19" shape="285.60,316.80 285.05,312.95 283.40,310.20 280.65,308.55 276.80,308.00"/>
    </edge>
    <edge id=":J0_2" function="internal">
        <lane id=":J0_2_0" index="0" speed="13.89" length="40.00" shape="288.80,316.80 288.80,276.80"/>
        <lane id=":J0_2_1" index="1" speed="13.89" length="40.00" shape="292.00,316.80 292.00,276.80"/>
    </edge>
    <edge id=":J0_4" function="internal">
        <lane id=":J0_4_0" index="0" speed="12.28" length="34.84" shape="295.20,316.80 296.55,307.35 300.60,300.60 307.35,296.55 316.80,295.20"/>
        <lane id=":J0_4_1" index="1" speed="11.36" length="29.67" shape="298.40,316.80 299.55,308.75 303.00,303.00 308.75,299.55 316.80,298.40"/>
    </edge>
    <edge id=":J0_6" function="internal">
        <lane id=":J0_6_0" index="0" speed="6.51" length="9.03" shape="316.80,311.20 314.35,311.55 312.60,312.60 311.55,314.35 311.20,316.80"/>
    </edge>
    <edge id=":J0_7" function="internal">
        <lane id=":J0_7_0" index="0" speed="13.89" length="40.00" shape="316.80,308.00 276.80,308.00"/>
    </edge>
    <edge id=":J0_8" function="internal">
        <lane id=":J0_8_0" index="0" speed="12.64" length="36.97" shape="316.80,304.80 309.99,301.68 302.95,294.13 297.43,284.92 295.20,276.80"/>
        <lane id=":J0_8_1" index="1" speed="11.89" length="32.61" shape="316.80,301.60 310.57,298.98 304.62,292.53 300.16,284.42 298.40,276.80"/>
    </edge>
    <edge id=":J0_10" function="internal">
        <lane id=":J0_10_0" index="0" speed="6.51" length="9.03" shape="311.20,276.80 311.55,279.25 312.60,281.00 314.35,282.05 316.80,282.40"/>
        <lane id=":J0_10_1" index="1" speed="8.00" length="14.19" shape="308.00,276.80 308.55,280.65 310.20,283.40 312.95,285.05 316.80,285.60"/>
    </edge>
    <edge id=":J0_12" function="internal">
        <lane id=":J0_12_0" index="0" speed="13.89" length="40.00" shape="304.80,276.80 304.80,316.80"/>
    </edge>
    <edge id=":J0_13" function="internal">
        <lane id=":J0_13_0" index="0" speed="13.13" length="40.00" shape="301.60,276.80 300.05,287.65 295.40,295.40 287.65,300.05 276.80,301.60"/>
    </edge>
    <edge id=":J0_14" function="internal">
        <lane id=":J0_14_0" index="0" speed="6.51" length="9.03" shape="276.80,282.40 279.25,282.05 281.00,281.00 282.05,279.25 282.40,276.80"/>
        <lane id=":J0_14_1" index="1" speed="8.00" length="14.19" shape="276.80,285.60 280.65,285.05 283.40,283.40 285.05,280.65 285.60,276.80"/>
    </edge>
    <edge id=":J0_16" function="internal">
        <lane id=":J0_16_0" index="0" speed="13.89" length="40.00" shape="276.80,288.80 316.80,288.80"/>
    </edge>
    <edge id=":J0_17" function="internal">
        <lane id=":J0_17_0" index="0" speed="13.35" length="41.36" shape="276.80,292.00 285.42,294.71 295.73,301.29 304.38,309.42 308.00,316.80"/>
        <lane id=":J0_17_1" index="1" speed="12.64" length="36.97" shape="276.80,295.20 284.92,297.43 294.13,302.95 301.68,309.99 304.80,316.80"/>
        <lane id=":J0_17_2" index="2" speed="11.89" length="32.61" shape="276.80,298.40 284.42,300.16 292.53,304.62 298.98,310.57 301.60,316.80"/>
    </edge>
    <edge id=":J1_0" function="internal">
        <lane id=":J1_0_0" index="0" speed="3.65" length="4.67" shape="301.60,600.00 300.80,601.20 300.00,601.60 299.20,601.20 298.40,600.00"/>
    </edge>
    <edge id=":J2_0" function="internal">
        <lane id=":J2_0_0" index="0" speed="3.65" length="4.67" shape="600.00,298.40 601.20,299.20 601.60,300.00 601.20,300.80 600.00,301.60"/>
    </edge>
    <edge id=":J3_0" function="internal">
        <lane id=":J3_0_0" index="0" speed="3.65" length="4.67" shape="298.40,0.00 299.20,-1.20 300.00,-1.60 300.80,-1.20 301.60,0.00"/>
    </edge>
    <edge id=":J4_0" function="internal">
        <lane id=":J4_0_0" index="0" speed="3.65" length="4.67" shape="0.00,301.60 -1.20,300.80 -1.60,300.00 -1.20,299.20 0.00,298.40"/>
    </edge>

    <edge id="1I" from="J1" to="J0" priority="-1">
        <lane id="1I_0" index="0" speed="13.89" length="283.20" shape="282.40,600.00 282.40,316.80"/>
        <lane id="1I_1" index="1" speed="13.89" length="283.20" shape="285.60,600.00 285.60,316.80"/>
        <lane id="1I_2" index="2" speed="13.89" length="283.20" shape="288.80,600.00 288.80,316.80"/>
        <lane id="1I_3" index="3" speed="13.89" length="283.20" shape="292.00,600.00 292.00,316.80"/>
        <lane id="1I_4" index="4" speed="13.89" length="283.20" shape="295.20,600.00 295.20,316.80"/>
        <lane id="1I_5" index="5" speed="13.89" length="283.20" shape="298.40,600.00 298.40,316.80"/>
    </edge>
    <edge id="1O" from="J0" to="J1" priority="-1">
        <lane id="1O_0" index="0" speed="13.89" length="283.20" shape="311.20,316.80 311.20,600.00"/>
        <lane id="1O_1" index="1" speed="13.89" length="283.20" shape="308.00,316.80 308.00,600.00"/>
        <lane id="1O_2" index="2" speed="13.89" length="283.20" shape="304.80,316.80 304.80,600.00"/>
        <lane id="1O_3" index="3" speed="13.89" length="283.20" shape="301.60,316.80 301.60,600.00"/>
    </edge>
    <edge id="2I" from="J2" to="J0" priority="-1">
        <lane id="2I_0" index="0" speed="13.89" length="283.20" shape="600.00,311.20 316.80,311.20"/>
        <lane id="2I_1" index="1" speed="13.89" length="283.20" shape="600.00,308.00 316.80,308.00"/>
        <lane id="2I_2" index="2" speed="13.89" length="283.20" shape="600.00,304.80 316.80,304.80"/>
        <lane id="2I_3" index="3" speed="13.89" length="283.20" shape="600.00,301.60 316.80,301.60"/>
    </edge>
    <edge id="2O" from="J0" to="J2" priority="-1">
        <lane id="2O_0" index="0" speed="13.89" length="283.20" shape="316.80,282.40 600.00,282.40"/>
        <lane id="2O_1" index="1" speed="13.89" length="283.20" shape="316.80,285.60 600.00,285.60"/>
        <lane id="2O_2" index="2" speed="13.89" length="283.20" shape="316.80,288.80 600.00,288.80"/>
        <lane id="2O_3" index="3" speed="13.89" length="283.20" shape="316.80,292.00 600.00,292.00"/>
        <lane id="2O_4" index="4" speed="13.89" length="283.20" shape="316.80,295.20 600.00,295.20"/>
        <lane id="2O_5" index="5" speed="13.89" length="283.20" shape="316.80,298.40 600.00,298.40"/>
    </edge>
    <edge id="3I" from="J3" to="J0" priority="-1">
        <lane id="3I_0" index="0" speed="13.89" length="276.80" shape="311.20,0.00 311.20,276.80"/>
        <lane id="3I_1" index="1" speed="13.89" length="276.80" shape="308.00,0.00 308.00,276.80"/>
        <lane id="3I_2" index="2" speed="13.89" length="276.80" shape="304.80,0.00 304.80,276.80"/>
        <lane id="3I_3" index="3" speed="13.89" length="276.80" shape="301.60,0.00 301.60,276.80"/>
    </edge>
    <edge id="3O" from="J0" to="J3" priority="-1">
        <lane id="3O_0" index="0" speed="13.89" length="276.80" shape="282.40,276.80 282.40,0.00"/>
        <lane id="3O_1" index="1" speed="13.89" length="276.80" shape="285.60,276.80 285.60,0.00"/>
        <lane id="3O_2" index="2" speed="13.89" length="276.80" shape="288.80,276.80 288.80,0.00"/>
        <lane id="3O_3" index="3" speed="13.89" length="276.80" shape="292.00,276.80 292.00,0.00"/>
        <lane id="3O_4" index="4" speed="13.89" length="276.80" shape="295.20,276.80 295.20,0.00"/>
        <lane id="3O_5" index="5" speed="13.89" length="276.80" shape="298.40,276.80 298.40,0.00"/>
    </edge>
    <edge id="4I" from="J4" to="J0" priority="-1">
        <lane id="4I_0" index="0" speed="13.89" length="276.80" shape="0.00,282.40 276.80,282.40"/>
        <lane id="4I_1" index="1" speed="13.89" length="276.80" shape="0.00,285.60 276.80,285.60"/>
        <lane id="4I_2" index="2" speed="13.89" length="276.80" shape="0.00,288.80 276.80,288.80"/>
        <lane id="4I_3" index="3" speed="13.89" length="276.80" shape="0.00,292.00 276.80,292.00"/>
        <lane id="4I_4" index="4" speed="13.89" length="276.80" shape="0.00,295.20 276.80,295.20"/>
        <lane id="4I_5" index="5" speed="13.89" length="276.80" shape="0.00,298.40 276.80,298.40"/>
    </edge>
    <edge id="4O" from="J0" to="J4" priority="-1">
        <lane id="4O_0" index="0" speed="13.89" length="276.80" shape="276.80,311.20 0.00,311.20"/>
        <lane id="4O_1" index="1" speed="13.89" length="276.80" shape="276.80,308.00 0.00,308.00"/>
        <lane id="4O_2" index="2" speed="13.89" length="276.80" shape="276.80,304.80 0.00,304.80"/>
        <lane id="4O_3" index="3" speed="13.89" length="276.80" shape="276.80,301.60 0.00,301.60"/>
    </edge>

    <tlLogic id="J0" type="static" programID="0" offset="0">
        <phase duration="15" state="rrrrGGGrrrrrrGGGrrrr"/>
        <phase duration="3"  state="rrrrYYYrrrrrrYYYrrrr"/>
        <phase duration="15" state="GGGGrrrrrrGGGrrrrrrr"/>
        <phase duration="3"  state="GGYYrrrrrrGGYrrrrrrr"/>
        <phase duration="15" state="GGrrrrrrGGGGrrrrrGGG"/>
        <phase duration="3"  state="YYrrrrrrYYYYrrrrrYYY"/>
        <phase duration="15" state="rrrrrrGGrrrrrrGGGrrr"/>
        <phase duration="3"  state="rrrrrrGYrrrrrrGGYrrr"/>
    </tlLogic>

    <junction id="J0" type="traffic_light" x="300.00" y="300.00" incLanes="1I_0 1I_1 1I_2 1I_3 1I_4 1I_5 2I_0 2I_1 2I_2 2I_3 3I_0 3I_1 3I_2 3I_3 4I_0 4I_1 4I_2 4I_3 4I_4 4I_5" intLanes=":J0_0_0 :J0_0_1 :J0_2_0 :J0_2_1 :J0_4_0 :J0_4_1 :J0_6_0 :J0_7_0 :J0_8_0 :J0_8_1 :J0_10_0 :J0_10_1 :J0_12_0 :J0_13_0 :J0_14_0 :J0_14_1 :J0_16_0 :J0_17_0 :J0_17_1 :J0_17_2" shape="280.80,316.80 312.80,316.80 313.24,314.58 313.80,313.80 314.58,313.24 315.58,312.91 316.80,312.80 316.80,280.80 314.58,280.36 313.80,279.80 313.24,279.02 312.91,278.02 312.80,276.80 280.80,276.80 280.36,279.02 279.80,279.80 279.02,280.36 278.02,280.69 276.80,280.80 276.80,312.80 279.02,313.24 279.80,313.80 280.36,314.58 280.69,315.58">
        <request index="0"  response="00000000000000000000" foes="00000000000010000000" cont="0"/>
        <request index="1"  response="00000000000000000000" foes="00000000000010000000" cont="0"/>
        <request index="2"  response="00000000000000000000" foes="11110010000010000000" cont="0"/>
        <request index="3"  response="00000000000000000000" foes="11110010000010000000" cont="0"/>
        <request index="4"  response="00000001000000000000" foes="11100001001110000000" cont="0"/>
        <request index="5"  response="00000001000000000000" foes="11100001001110000000" cont="0"/>
        <request index="6"  response="00000000000000000000" foes="00000000000000000000" cont="0"/>
        <request index="7"  response="00000001000000111111" foes="11100001000000111111" cont="0"/>
        <request index="8"  response="00010011000000110000" foes="00010011000000110000" cont="0"/>
        <request index="9"  response="00010011000000110000" foes="00010011000000110000" cont="0"/>
        <request index="10" response="00000000000000000000" foes="00000000000000000000" cont="0"/>
        <request index="11" response="00000000000000000000" foes="00000000000000000000" cont="0"/>
        <request index="12" response="00000000000000000000" foes="11110000001110110000" cont="0"/>
        <request index="13" response="00000000000000001100" foes="11110000001100001100" cont="0"/>
        <request index="14" response="00000000000000000000" foes="00000000000000000000" cont="0"/>
        <request index="15" response="00000000000000000000" foes="00000000000000000000" cont="0"/>
        <request index="16" response="00000011000000001100" foes="00000011001100001100" cont="0"/>
        <request index="17" response="00000011000010111100" foes="00000011000010111100" cont="0"/>
        <request index="18" response="00000011000010111100" foes="00000011000010111100" cont="0"/>
        <request index="19" response="00000011000010111100" foes="00000011000010111100" cont="0"/>
    </junction>
    <junction id="J1" type="priority" x="300.00" y="600.00" incLanes="1O_0 1O_1 1O_2 1O_3" intLanes=":J1_0_0" shape="300.00,600.00 312.80,600.00 300.00,600.00">
        <request index="0" response="0" foes="0" cont="0"/>
    </junction>
    <junction id="J2" type="priority" x="600.00" y="300.00" incLanes="2O_0 2O_1 2O_2 2O_3 2O_4 2O_5" intLanes=":J2_0_0" shape="600.00,300.00 600.00,280.80 600.00,300.00">
        <request index="0" response="0" foes="0" cont="0"/>
    </junction>
    <junction id="J3" type="priority" x="300.00" y="0.00" incLanes="3O_0 3O_1 3O_2 3O_3 3O_4 3O_5" intLanes=":J3_0_0" shape="300.00,0.00 280.80,0.00 300.00,0.00">
        <request index="0" response="0" foes="0" cont="0"/>
    </junction>
    <junction id="J4" type="priority" x="0.00" y="300.00" incLanes="4O_0 4O_1 4O_2 4O_3" intLanes=":J4_0_0" shape="0.00,300.00 0.00,312.80 0.00,300.00">
        <request index="0" response="0" foes="0" cont="0"/>
    </junction>

    <connection from="1I" to="4O" fromLane="0" toLane="0" contPos="0.00" via=":J0_0_0" tl="J0" linkIndex="0" dir="r" state="O"/>
    <connection from="1I" to="4O" fromLane="1" toLane="1" contPos="0.00" via=":J0_0_1" tl="J0" linkIndex="1" dir="r" state="O"/>
    <connection from="1I" to="3O" fromLane="2" toLane="2" contPos="0.00" via=":J0_2_0" tl="J0" linkIndex="2" dir="s" state="O"/>
    <connection from="1I" to="3O" fromLane="3" toLane="3" contPos="0.00" via=":J0_2_1" tl="J0" linkIndex="3" dir="s" state="O"/>
    <connection from="1I" to="2O" fromLane="4" toLane="4" contPos="0.00" via=":J0_4_0" tl="J0" linkIndex="4" dir="l" state="o"/>
    <connection from="1I" to="2O" fromLane="5" toLane="5" contPos="0.00" via=":J0_4_1" tl="J0" linkIndex="5" dir="l" state="o"/>
    <connection from="1O" to="1I" fromLane="3" toLane="5" via=":J1_0_0" dir="t" state="M"/>
    <connection from="2I" to="1O" fromLane="0" toLane="0" contPos="0.00" via=":J0_6_0" tl="J0" linkIndex="6" dir="r" state="O"/>
    <connection from="2I" to="4O" fromLane="1" toLane="1" contPos="0.00" via=":J0_7_0" tl="J0" linkIndex="7" dir="s" state="o"/>
    <connection from="2I" to="3O" fromLane="2" toLane="4" contPos="0.00" via=":J0_8_0" tl="J0" linkIndex="8" dir="l" state="o"/>
    <connection from="2I" to="3O" fromLane="3" toLane="5" contPos="0.00" via=":J0_8_1" tl="J0" linkIndex="9" dir="l" state="o"/>
    <connection from="2O" to="2I" fromLane="5" toLane="3" via=":J2_0_0" dir="t" state="M"/>
    <connection from="3I" to="2O" fromLane="0" toLane="0" contPos="0.00" via=":J0_10_0" tl="J0" linkIndex="10" dir="r" state="O"/>
    <connection from="3I" to="2O" fromLane="1" toLane="1" contPos="0.00" via=":J0_10_1" tl="J0" linkIndex="11" dir="r" state="O"/>
    <connection from="3I" to="1O" fromLane="2" toLane="2" contPos="0.00" via=":J0_12_0" tl="J0" linkIndex="12" dir="s" state="O"/>
    <connection from="3I" to="4O" fromLane="3" toLane="3" contPos="0.00" via=":J0_13_0" tl="J0" linkIndex="13" dir="l" state="o"/>
    <connection from="3O" to="3I" fromLane="5" toLane="3" via=":J3_0_0" dir="t" state="M"/>
    <connection from="4I" to="3O" fromLane="0" toLane="0" contPos="0.00" via=":J0_14_0" tl="J0" linkIndex="14" dir="r" state="O"/>
    <connection from="4I" to="3O" fromLane="1" toLane="1" contPos="0.00" via=":J0_14_1" tl="J0" linkIndex="15" dir="r" state="O"/>
    <connection from="4I" to="2O" fromLane="2" toLane="2" contPos="0.00" via=":J0_16_0" tl="J0" linkIndex="16" dir="s" state="o"/>
    <connection from="4I" to="1O" fromLane="3" toLane="1" contPos="0.00" via=":J0_17_0" tl="J0" linkIndex="17" dir="l" state="o"/>
    <connection from="4I" to="1O" fromLane="4" toLane="2" contPos="0.00" via=":J0_17_1" tl="J0" linkIndex="18" dir="l" state="o"/>
    <connection from="4I" to="1O" fromLane="5" toLane="3" contPos="0.00" via=":J0_17_2" tl="J0" linkIndex="19" dir="l" state="o"/>
    <connection from="4O" to="4I" fromLane="3" toLane="5" via=":J4_0_0" dir="t" state="M"/>

    <connection from=":J0_0" to="4O" fromLane="0" toLane="0" dir="r" state="M"/>
    <connection from=":J0_0" to="4O" fromLane="1" toLane="1" dir="r" state="M"/>
    <connection from=":J0_2" to="3O" fromLane="0" toLane="2" dir="s" state="M"/>
    <connection from=":J0_2" to="3O" fromLane="1" toLane="3" dir="s" state="M"/>
    <connection from=":J0_4" to="2O" fromLane="0" toLane="4" dir="l" state="M"/>
    <connection from=":J0_4" to="2O" fromLane="1" toLane="5" dir="l" state="M"/>
    <connection from=":J0_6" to="1O" fromLane="0" toLane="0" dir="r" state="M"/>
    <connection from=":J0_7" to="4O" fromLane="0" toLane="1" dir="s" state="M"/>
    <connection from=":J0_8" to="3O" fromLane="0" toLane="4" dir="l" state="M"/>
    <connection from=":J0_8" to="3O" fromLane="1" toLane="5" dir="l" state="M"/>
    <connection from=":J0_10" to="2O" fromLane="0" toLane="0" dir="r" state="M"/>
    <connection from=":J0_10" to="2O" fromLane="1" toLane="1" dir="r" state="M"/>
    <connection from=":J0_12" to="1O" fromLane="0" toLane="2" dir="s" state="M"/>
    <connection from=":J0_13" to="4O" fromLane="0" toLane="3" dir="l" state="M"/>
    <connection from=":J0_14" to="3O" fromLane="0" toLane="0" dir="r" state="M"/>
    <connection from=":J0_14" to="3O" fromLane="1" toLane="1" dir="r" state="M"/>
    <connection from=":J0_16" to="2O" fromLane="0" toLane="2" dir="s" state="M"/>
    <connection from=":J0_17" to="1O" fromLane="0" toLane="1" dir="l" state="M"/>
    <connection from=":J0_17" to="1O" fromLane="1" toLane="2" dir="l" state="M"/>
    <connection from=":J0_17" to="1O" fromLane="2" toLane="3" dir="l" state="M"/>
    <connection from=":J1_0" to="1I" fromLane="0" toLane="5" dir="t" state="M"/>
    <connection from=":J2_0" to="2I" fromLane="0" toLane="3" dir="t" state="M"/>
    <connection from=":J3_0" to="3I" fromLane="0" toLane="3" dir="t" state="M"/>
    <connection from=":J4_0" to="4I" fromLane="0" toLane="5" dir="t" state="M"/>

</net>
