<?xml version="1.0" encoding="UTF-8"?>

<!-- generated on 2022-04-07 14:05:50 by Eclipse SUMO netconvert Version 1.9.2
<configuration xmlns:xsi="http://www.w3.org/2001/XMLSchema-instance" xsi:noNamespaceSchemaLocation="http://sumo.dlr.de/xsd/netconvertConfiguration.xsd">

    <input>
        <node-files value="network/inputs/input.nod.xml"/>
        <edge-files value="network/inputs/input_5_4_6_4.edg.xml"/>
        <connection-files value="network/inputs/input_rrssl_rsll_rrssll_rrsl.con.xml"/>
        <tllogic-files value="network/inputs/input_rrssl_rsll_rrssll_rrsl.tll.xml"/>
    </input>

    <output>
        <output-file value="network/rrssl_rsll_rrssll_rrsl.net.xml"/>
    </output>

    <report>
        <no-warnings value="true"/>
        <aggregate-warnings value="5"/>
        <log value="network/log/rrssl_rsll_rrssll_rrsl.log.xml"/>
    </report>

</configuration>
-->

<net version="1.9" junctionCornerDetail="5" limitTurnSpeed="5.50" xmlns:xsi="http://www.w3.org/2001/XMLSchema-instance" xsi:noNamespaceSchemaLocation="http://sumo.dlr.de/xsd/net_file.xsd">

    <location netOffset="300.00,300.00" convBoundary="0.00,0.00,600.00,600.00" origBoundary="-300.00,-300.00,300.00,300.00" projParameter="!"/>

    <edge id=":J0_0" function="internal">
        <lane id=":J0_0_0" index="0" speed="6.51" length="9.03" shape="285.60,316.80 285.25,314.35 284.20,312.60 282.45,311.55 280.00,311.20"/>
        <lane id=":J0_0_1" index="1" speed="8.00" length="14.19" shape="288.80,316.80 288.25,312.95 286.60,310.20 283.85,308.55 280.00,308.00"/>
    </edge>
    <edge id=":J0_2" function="internal">
        <lane id=":J0_2_0" index="0" speed="13.89" length="33.60" shape="292.00,316.80 292.00,283.20"/>
        <lane id=":J0_2_1" index="1" speed="13.89" length="33.60" shape="295.20,316.80 295.20,283.20"/>
    </edge>
    <edge id=":J0_4" function="internal">
        <lane id=":J0_4_0" index="0" speed="12.30" length="34.99" shape="298.40,316.80 299.95,308.75 304.60,303.00 312.35,299.55 323.20,298.40"/>
    </edge>
    <edge id=":J0_5" function="internal">
        <lane id=":J0_5_0" index="0" speed="6.51" length="9.03" shape="323.20,311.20 320.75,311.55 319.00,312.60 317.95,314.35 317.60,316.80"/>
    </edge>
    <edge id=":J0_6" function="internal">
        <lane id=":J0_6_0" index="0" speed="13.89" length="43.20" shape="323.20,308.00 280.00,308.00"/>
    </edge>
    <edge id=":J0_7" function="internal">
        <lane id=":J0_7_0" index="0" speed="13.15" length="40.13" shape="323.20,304.80 310.95,303.45 302.20,299.40 296.95,292.65 295.20,283.20"/>
        <lane id=":J0_7_1" index="1" speed="12.30" length="34.99" shape="323.20,301.60 312.35,300.45 304.60,297.00 299.95,291.25 298.40,283.20"/>
    </edge>
    <edge id=":J0_9" function="internal">
        <lane id=":J0_9_0" index="0" speed="6.51" length="9.03" shape="317.60,283.20 317.95,285.65 319.00,287.40 320.75,288.45 323.20,288.80"/>
        <lane id=":J0_9_1" index="1" speed="8.00" length="14.19" shape="314.40,283.20 314.95,287.05 316.60,289.80 319.35,291.45 323.20,292.00"/>
    </edge>
    <edge id=":J0_11" function="internal">
        <lane id=":J0_11_0" index="0" speed="13.89" length="33.60" shape="311.20,283.20 311.20,316.80"/>
        <lane id=":J0_11_1" index="1" speed="13.89" length="33.60" shape="308.00,283.20 308.00,316.80"/>
    </edge>
    <edge id=":J0_13" function="internal">
        <lane id=":J0_13_0" index="0" speed="12.72" length="37.45" shape="304.80,283.20 303.25,292.65 298.60,299.40 290.85,303.45 280.00,304.80"/>
        <lane id=":J0_13_1" index="1" speed="11.84" length="32.30" shape="301.60,283.20 300.25,291.25 296.20,297.00 289.45,300.45 280.00,301.60"/>
    </edge>
    <edge id=":J0_15" function="internal">
        <lane id=":J0_15_0" index="0" speed="6.51" length="9.03" shape="280.00,288.80 282.45,288.45 284.20,287.40 285.25,285.65 285.60,283.20"/>
        <lane id=":J0_15_1" index="1" speed="8.00" length="14.19" shape="280.00,292.00 283.85,291.45 286.60,289.80 288.25,287.05 288.80,283.20"/>
    </edge>
    <edge id=":J0_17" function="internal">
        <lane id=":J0_17_0" index="0" speed="13.89" length="43.20" shape="280.00,295.20 323.20,295.20"/>
    </edge>
    <edge id=":J0_18" function="internal">
        <lane id=":J0_18_0" index="0" speed="11.84" length="32.30" shape="280.00,298.40 289.45,299.55 296.20,303.00 300.25,308.75 301.60,316.80"/>
    </edge>
    <edge id=":J1_0" function="internal">
        <lane id=":J1_0_0" index="0" speed="3.65" length="4.67" shape="301.60,600.00 300.80,601.20 300.00,601.60 299.20,601.20 298.40,600.00"/>
    </edge>
    <edge id=":J2_0" function="internal">
        <lane id=":J2_0_0" index="0" speed="3.65" length="4.67" shape="600.00,298.40 601.20,299.20 601.60,300.00 601.20,300.80 600.00,301.60"/>
    </edge>
    <edge id=":J3_0" function="internal">
        <lane id=":J3_0_0" index="0" speed="3.65" length="4.67" shape="298.40,0.00 299.20,-1.20 300.00,-1.60 300.80,-1.20 301.60,0.00"/>
    </edge>
    <edge id=":J4_0" function="internal">
        <lane id=":J4_0_0" index="0" speed="3.65" length="4.67" shape="0.00,301.60 -1.20,300.80 -1.60,300.00 -1.20,299.20 0.00,298.40"/>
    </edge>

    <edge id="1I" from="J1" to="J0" priority="-1">
        <lane id="1I_0" index="0" speed="13.89" length="283.20" shape="285.60,600.00 285.60,316.80"/>
        <lane id="1I_1" index="1" speed="13.89" length="283.20" shape="288.80,600.00 288.80,316.80"/>
        <lane id="1I_2" index="2" speed="13.89" length="283.20" shape="292.00,600.00 292.00,316.80"/>
        <lane id="1I_3" index="3" speed="13.89" length="283.20" shape="295.20,600.00 295.20,316.80"/>
        <lane id="1I_4" index="4" speed="13.89" length="283.20" shape="298.40,600.00 298.40,316.80"/>
    </edge>
    <edge id="1O" from="J0" to="J1" priority="-1">
        <lane id="1O_0" index="0" speed="13.89" length="283.20" shape="317.60,316.80 317.60,600.00"/>
        <lane id="1O_1" index="1" speed="13.89" length="283.20" shape="314.40,316.80 314.40,600.00"/>
        <lane id="1O_2" index="2" speed="13.89" length="283.20" shape="311.20,316.80 311.20,600.00"/>
        <lane id="1O_3" index="3" speed="13.89" length="283.20" shape="308.00,316.80 308.00,600.00"/>
        <lane id="1O_4" index="4" speed="13.89" length="283.20" shape="304.80,316.80 304.80,600.00"/>
        <lane id="1O_5" index="5" speed="13.89" length="283.20" shape="301.60,316.80 301.60,600.00"/>
    </edge>
    <edge id="2I" from="J2" to="J0" priority="-1">
        <lane id="2I_0" index="0" speed="13.89" length="276.80" shape="600.00,311.20 323.20,311.20"/>
        <lane id="2I_1" index="1" speed="13.89" length="276.80" shape="600.00,308.00 323.20,308.00"/>
        <lane id="2I_2" index="2" speed="13.89" length="276.80" shape="600.00,304.80 323.20,304.80"/>
        <lane id="2I_3" index="3" speed="13.89" length="276.80" shape="600.00,301.60 323.20,301.60"/>
    </edge>
    <edge id="2O" from="J0" to="J2" priority="-1">
        <lane id="2O_0" index="0" speed="13.89" length="276.80" shape="323.20,288.80 600.00,288.80"/>
        <lane id="2O_1" index="1" speed="13.89" length="276.80" shape="323.20,292.00 600.00,292.00"/>
        <lane id="2O_2" index="2" speed="13.89" length="276.80" shape="323.20,295.20 600.00,295.20"/>
        <lane id="2O_3" index="3" speed="13.89" length="276.80" shape="323.20,298.40 600.00,298.40"/>
    </edge>
    <edge id="3I" from="J3" to="J0" priority="-1">
        <lane id="3I_0" index="0" speed="13.89" length="283.20" shape="317.60,0.00 317.60,283.20"/>
        <lane id="3I_1" index="1" speed="13.89" length="283.20" shape="314.40,0.00 314.40,283.20"/>
        <lane id="3I_2" index="2" speed="13.89" length="283.20" shape="311.20,0.00 311.20,283.20"/>
        <lane id="3I_3" index="3" speed="13.89" length="283.20" shape="308.00,0.00 308.00,283.20"/>
        <lane id="3I_4" index="4" speed="13.89" length="283.20" shape="304.80,0.00 304.80,283.20"/>
        <lane id="3I_5" index="5" speed="13.89" length="283.20" shape="301.60,0.00 301.60,283.20"/>
    </edge>
    <edge id="3O" from="J0" to="J3" priority="-1">
        <lane id="3O_0" index="0" speed="13.89" length="283.20" shape="285.60,283.20 285.60,0.00"/>
        <lane id="3O_1" index="1" speed="13.89" length="283.20" shape="288.80,283.20 288.80,0.00"/>
        <lane id="3O_2" index="2" speed="13.89" length="283.20" shape="292.00,283.20 292.00,0.00"/>
        <lane id="3O_3" index="3" speed="13.89" length="283.20" shape="295.20,283.20 295.20,0.00"/>
        <lane id="3O_4" index="4" speed="13.89" length="283.20" shape="298.40,283.20 298.40,0.00"/>
    </edge>
    <edge id="4I" from="J4" to="J0" priority="-1">
        <lane id="4I_0" index="0" speed="13.89" length="280.00" shape="0.00,288.80 280.00,288.80"/>
        <lane id="4I_1" index="1" speed="13.89" length="280.00" shape="0.00,292.00 280.00,292.00"/>
        <lane id="4I_2" index="2" speed="13.89" length="280.00" shape="0.00,295.20 280.00,295.20"/>
        <lane id="4I_3" index="3" speed="13.89" length="280.00" shape="0.00,298.40 280.00,298.40"/>
    </edge>
    <edge id="4O" from="J0" to="J4" priority="-1">
        <lane id="4O_0" index="0" speed="13.89" length="280.00" shape="280.00,311.20 0.00,311.20"/>
        <lane id="4O_1" index="1" speed="13.89" length="280.00" shape="280.00,308.00 0.00,308.00"/>
        <lane id="4O_2" index="2" speed="13.89" length="280.00" shape="280.00,304.80 0.00,304.80"/>
        <lane id="4O_3" index="3" speed="13.89" length="280.00" shape="280.00,301.60 0.00,301.60"/>
    </edge>

    <tlLogic id="J0" type="static" programID="0" offset="0">
        <phase duration="15" state="rrrrGGrrrrrrrGGGGrr"/>
        <phase duration="3"  state="rrrrYYrrrrrrrYYYYrr"/>
        <phase duration="15" state="GGGGrrrrrGGGGrrrrrr"/>
        <phase duration="3"  state="GGYYrrrrrGGYYrrrrrr"/>
        <phase duration="15" state="GGrrrrrGGGGrrrrrrrG"/>
        <phase duration="3"  state="YYrrrrrYYYYrrrrrrrY"/>
        <phase duration="15" state="rrrrrGGrrrrrrrrGGGr"/>
        <phase duration="3"  state="rrrrrGYrrrrrrrrGGYr"/>
    </tlLogic>

    <junction id="J0" type="traffic_light" x="300.00" y="300.00" incLanes="1I_0 1I_1 1I_2 1I_3 1I_4 2I_0 2I_1 2I_2 2I_3 3I_0 3I_1 3I_2 3I_3 3I_4 3I_5 4I_0 4I_1 4I_2 4I_3" intLanes=":J0_0_0 :J0_0_1 :J0_2_0 :J0_2_1 :J0_4_0 :J0_5_0 :J0_6_0 :J0_7_0 :J0_7_1 :J0_9_0 :J0_9_1 :J0_11_0 :J0_11_1 :J0_13_0 :J0_13_1 :J0_15_0 :J0_15_1 :J0_17_0 :J0_18_0" shape="284.00,316.80 319.20,316.80 319.64,314.58 320.20,313.80 320.98,313.24 321.98,312.91 323.20,312.80 323.20,287.20 320.98,286.76 320.20,286.20 319.64,285.42 319.31,284.42 319.20,283.20 284.00,283.20 283.56,285.42 283.00,286.20 282.22,286.76 281.22,287.09 280.00,287.20 280.00,312.80 282.22,313.24 283.00,313.80 283.56,314.58 283.89,315.58">
        <request index="0"  response="0000000000000000000" foes="0000000000001000000" cont="0"/>
        <request index="1"  response="0000000000000000000" foes="0000000000001000000" cont="0"/>
        <request index="2"  response="0000000000000000000" foes="1100110000111000000" cont="0"/>
        <request index="3"  response="0000000000000000000" foes="1100110000111000000" cont="0"/>
        <request index="4"  response="0000001100000000000" foes="1000001100111000000" cont="0"/>
        <request index="5"  response="0000000000000000000" foes="0000000000000000000" cont="0"/>
        <request index="6"  response="0000001100000011111" foes="1000001100000011111" cont="0"/>
        <request index="7"  response="0100111100000011100" foes="0100111100000011100" cont="0"/>
        <request index="8"  response="0100111100000011100" foes="0100111100000011100" cont="0"/>
        <request index="9"  response="0000000000000000000" foes="0000000000000000000" cont="0"/>
        <request index="10" response="0000000000000000000" foes="0000000000000000000" cont="0"/>
        <request index="11" response="0000000000000000000" foes="0100000000111010000" cont="0"/>
        <request index="12" response="0000000000000000000" foes="0100000000111010000" cont="0"/>
        <request index="13" response="0000000000000001100" foes="1100000000110001100" cont="0"/>
        <request index="14" response="0000000000000001100" foes="1100000000110001100" cont="0"/>
        <request index="15" response="0000000000000000000" foes="0000000000000000000" cont="0"/>
        <request index="16" response="0000000000000000000" foes="0000000000000000000" cont="0"/>
        <request index="17" response="0000111100000001100" foes="0000111100110001100" cont="0"/>
        <request index="18" response="0000110000001011100" foes="0000110000001011100" cont="0"/>
    </junction>
    <junction id="J1" type="priority" x="300.00" y="600.00" incLanes="1O_0 1O_1 1O_2 1O_3 1O_4 1O_5" intLanes=":J1_0_0" shape="300.00,600.00 319.20,600.00 300.00,600.00">
        <request index="0" response="0" foes="0" cont="0"/>
    </junction>
    <junction id="J2" type="priority" x="600.00" y="300.00" incLanes="2O_0 2O_1 2O_2 2O_3" intLanes=":J2_0_0" shape="600.00,300.00 600.00,287.20 600.00,300.00">
        <request index="0" response="0" foes="0" cont="0"/>
    </junction>
    <junction id="J3" type="priority" x="300.00" y="0.00" incLanes="3O_0 3O_1 3O_2 3O_3 3O_4" intLanes=":J3_0_0" shape="300.00,0.00 284.00,0.00 300.00,0.00">
        <request index="0" response="0" foes="0" cont="0"/>
    </junction>
    <junction id="J4" type="priority" x="0.00" y="300.00" incLanes="4O_0 4O_1 4O_2 4O_3" intLanes=":J4_0_0" shape="0.00,300.00 0.00,312.80 0.00,300.00">
        <request index="0" response="0" foes="0" cont="0"/>
    </junction>

    <connection from="1I" to="4O" fromLane="0" toLane="0" contPos="0.00" via=":J0_0_0" tl="J0" linkIndex="0" dir="r" state="O"/>
    <connection from="1I" to="4O" fromLane="1" toLane="1" contPos="0.00" via=":J0_0_1" tl="J0" linkIndex="1" dir="r" state="O"/>
    <connection from="1I" to="3O" fromLane="2" toLane="2" contPos="0.00" via=":J0_2_0" tl="J0" linkIndex="2" dir="s" state="O"/>
    <connection from="1I" to="3O" fromLane="3" toLane="3" contPos="0.00" via=":J0_2_1" tl="J0" linkIndex="3" dir="s" state="O"/>
    <connection from="1I" to="2O" fromLane="4" toLane="3" contPos="0.00" via=":J0_4_0" tl="J0" linkIndex="4" dir="l" state="o"/>
    <connection from="1O" to="1I" fromLane="5" toLane="4" via=":J1_0_0" dir="t" state="M"/>
    <connection from="2I" to="1O" fromLane="0" toLane="0" contPos="0.00" via=":J0_5_0" tl="J0" linkIndex="5" dir="r" state="O"/>
    <connection from="2I" to="4O" fromLane="1" toLane="1" contPos="0.00" via=":J0_6_0" tl="J0" linkIndex="6" dir="s" state="o"/>
    <connection from="2I" to="3O" fromLane="2" toLane="3" contPos="0.00" via=":J0_7_0" tl="J0" linkIndex="7" dir="l" state="o"/>
    <connection from="2I" to="3O" fromLane="3" toLane="4" contPos="0.00" via=":J0_7_1" tl="J0" linkIndex="8" dir="l" state="o"/>
    <connection from="2O" to="2I" fromLane="3" toLane="3" via=":J2_0_0" dir="t" state="M"/>
    <connection from="3I" to="2O" fromLane="0" toLane="0" contPos="0.00" via=":J0_9_0" tl="J0" linkIndex="9" dir="r" state="O"/>
    <connection from="3I" to="2O" fromLane="1" toLane="1" contPos="0.00" via=":J0_9_1" tl="J0" linkIndex="10" dir="r" state="O"/>
    <connection from="3I" to="1O" fromLane="2" toLane="2" contPos="0.00" via=":J0_11_0" tl="J0" linkIndex="11" dir="s" state="O"/>
    <connection from="3I" to="1O" fromLane="3" toLane="3" contPos="0.00" via=":J0_11_1" tl="J0" linkIndex="12" dir="s" state="O"/>
    <connection from="3I" to="4O" fromLane="4" toLane="2" contPos="0.00" via=":J0_13_0" tl="J0" linkIndex="13" dir="l" state="o"/>
    <connection from="3I" to="4O" fromLane="5" toLane="3" contPos="0.00" via=":J0_13_1" tl="J0" linkIndex="14" dir="l" state="o"/>
    <connection from="3O" to="3I" fromLane="4" toLane="5" via=":J3_0_0" dir="t" state="M"/>
    <connection from="4I" to="3O" fromLane="0" toLane="0" contPos="0.00" via=":J0_15_0" tl="J0" linkIndex="15" dir="r" state="O"/>
    <connection from="4I" to="3O" fromLane="1" toLane="1" contPos="0.00" via=":J0_15_1" tl="J0" linkIndex="16" dir="r" state="O"/>
    <connection from="4I" to="2O" fromLane="2" toLane="2" contPos="0.00" via=":J0_17_0" tl="J0" linkIndex="17" dir="s" state="o"/>
    <connection from="4I" to="1O" fromLane="3" toLane="5" contPos="0.00" via=":J0_18_0" tl="J0" linkIndex="18" dir="l" state="o"/>
    <connection from="4O" to="4I" fromLane="3" toLane="3" via=":J4_0_0" dir="t" state="M"/>

    <connection from=":J0_0" to="4O" fromLane="0" toLane="0" dir="r" state="M"/>
    <connection from=":J0_0" to="4O" fromLane="1" toLane="1" dir="r" state="M"/>
    <connection from=":J0_2" to="3O" fromLane="0" toLane="2" dir="s" state="M"/>
    <connection from=":J0_2" to="3O" fromLane="1" toLane="3" dir="s" state="M"/>
    <connection from=":J0_4" to="2O" fromLane="0" toLane="3" dir="l" state="M"/>
    <connection from=":J0_5" to="1O" fromLane="0" toLane="0" dir="r" state="M"/>
    <connection from=":J0_6" to="4O" fromLane="0" toLane="1" dir="s" state="M"/>
    <connection from=":J0_7" to="3O" fromLane="0" toLane="3" dir="l" state="M"/>
    <connection from=":J0_7" to="3O" fromLane="1" toLane="4" dir="l" state="M"/>
    <connection from=":J0_9" to="2O" fromLane="0" toLane="0" dir="r" state="M"/>
    <connection from=":J0_9" to="2O" fromLane="1" toLane="1" dir="r" state="M"/>
    <connection from=":J0_11" to="1O" fromLane="0" toLane="2" dir="s" state="M"/>
    <connection from=":J0_11" to="1O" fromLane="1" toLane="3" dir="s" state="M"/>
    <connection from=":J0_13" to="4O" fromLane="0" toLane="2" dir="l" state="M"/>
    <connection from=":J0_13" to="4O" fromLane="1" toLane="3" dir="l" state="M"/>
    <connection from=":J0_15" to="3O" fromLane="0" toLane="0" dir="r" state="M"/>
    <connection from=":J0_15" to="3O" fromLane="1" toLane="1" dir="r" state="M"/>
    <connection from=":J0_17" to="2O" fromLane="0" toLane="2" dir="s" state="M"/>
    <connection from=":J0_18" to="1O" fromLane="0" toLane="5" dir="l" state="M"/>
    <connection from=":J1_0" to="1I" fromLane="0" toLane="4" dir="t" state="M"/>
    <connection from=":J2_0" to="2I" fromLane="0" toLane="3" dir="t" state="M"/>
    <connection from=":J3_0" to="3I" fromLane="0" toLane="5" dir="t" state="M"/>
    <connection from=":J4_0" to="4I" fromLane="0" toLane="3" dir="t" state="M"/>

</net>
