<?xml version="1.0" encoding="UTF-8"?>

<!-- generated on 2022-04-07 14:04:58 by Eclipse SUMO netconvert Version 1.9.2
<configuration xmlns:xsi="http://www.w3.org/2001/XMLSchema-instance" xsi:noNamespaceSchemaLocation="http://sumo.dlr.de/xsd/netconvertConfiguration.xsd">

    <input>
        <node-files value="network/inputs/input.nod.xml"/>
        <edge-files value="network/inputs/input_3_4_5_7.edg.xml"/>
        <connection-files value="network/inputs/input_rsl_rrsl_rrsll_rssssll.con.xml"/>
        <tllogic-files value="network/inputs/input_rsl_rrsl_rrsll_rssssll.tll.xml"/>
    </input>

    <output>
        <output-file value="network/rsl_rrsl_rrsll_rssssll.net.xml"/>
    </output>

    <report>
        <no-warnings value="true"/>
        <aggregate-warnings value="5"/>
        <log value="network/log/rsl_rrsl_rrsll_rssssll.log.xml"/>
    </report>

</configuration>
-->

<net version="1.9" junctionCornerDetail="5" limitTurnSpeed="5.50" xmlns:xsi="http://www.w3.org/2001/XMLSchema-instance" xsi:noNamespaceSchemaLocation="http://sumo.dlr.de/xsd/net_file.xsd">

    <location netOffset="300.00,300.00" convBoundary="0.00,0.00,600.00,600.00" origBoundary="-300.00,-300.00,300.00,300.00" projParameter="!"/>

    <edge id=":J0_0" function="internal">
        <lane id=":J0_0_0" index="0" speed="6.51" length="9.03" shape="292.00,316.80 291.65,314.35 290.60,312.60 288.85,311.55 286.40,311.20"/>
    </edge>
    <edge id=":J0_1" function="internal">
        <lane id=":J0_1_0" index="0" speed="13.89" length="43.20" shape="295.20,316.80 295.20,273.60"/>
    </edge>
    <edge id=":J0_2" function="internal">
        <lane id=":J0_2_0" index="0" speed="11.84" length="32.30" shape="298.40,316.80 299.75,308.75 303.80,303.00 310.55,299.55 320.00,298.40"/>
    </edge>
    <edge id=":J0_3" function="internal">
        <lane id=":J0_3_0" index="0" speed="6.51" length="9.03" shape="320.00,311.20 317.55,311.55 315.80,312.60 314.75,314.35 314.40,316.80"/>
        <lane id=":J0_3_1" index="1" speed="8.00" length="14.19" shape="320.00,308.00 316.15,308.55 313.40,310.20 311.75,312.95 311.20,316.80"/>
    </edge>
    <edge id=":J0_5" function="internal">
        <lane id=":J0_5_0" index="0" speed="13.89" length="33.60" shape="320.00,304.80 286.40,304.80"/>
    </edge>
    <edge id=":J0_6" function="internal">
        <lane id=":J0_6_0" index="0" speed="13.15" length="40.13" shape="320.00,301.60 310.55,299.85 303.80,294.60 299.75,285.85 298.40,273.60"/>
    </edge>
    <edge id=":J0_7" function="internal">
        <lane id=":J0_7_0" index="0" speed="6.51" length="9.03" shape="314.40,273.60 314.75,276.05 315.80,277.80 317.55,278.85 320.00,279.20"/>
        <lane id=":J0_7_1" index="1" speed="8.00" length="14.19" shape="311.20,273.60 311.75,277.45 313.40,280.20 316.15,281.85 320.00,282.40"/>
    </edge>
    <edge id=":J0_9" function="internal">
        <lane id=":J0_9_0" index="0" speed="13.89" length="43.20" shape="308.00,273.60 308.00,316.80"/>
    </edge>
    <edge id=":J0_10" function="internal">
        <lane id=":J0_10_0" index="0" speed="13.22" length="40.53" shape="304.80,273.60 303.65,287.25 300.20,297.00 294.45,302.85 286.40,304.80"/>
        <lane id=":J0_10_1" index="1" speed="12.38" length="35.45" shape="301.60,273.60 300.65,285.85 297.80,294.60 293.05,299.85 286.40,301.60"/>
    </edge>
    <edge id=":J0_12" function="internal">
        <lane id=":J0_12_0" index="0" speed="6.51" length="9.03" shape="286.40,279.20 288.85,278.85 290.60,277.80 291.65,276.05 292.00,273.60"/>
    </edge>
    <edge id=":J0_13" function="internal">
        <lane id=":J0_13_0" index="0" speed="13.89" length="33.60" shape="286.40,282.40 320.00,282.40"/>
        <lane id=":J0_13_1" index="1" speed="13.89" length="33.60" shape="286.40,285.60 320.00,285.60"/>
        <lane id=":J0_13_2" index="2" speed="13.89" length="33.60" shape="286.40,288.80 320.00,288.80"/>
        <lane id=":J0_13_3" index="3" speed="13.89" length="33.60" shape="286.40,292.00 320.00,292.00"/>
    </edge>
    <edge id=":J0_17" function="internal">
        <lane id=":J0_17_0" index="0" speed="11.84" length="32.30" shape="286.40,295.20 294.45,296.55 300.20,300.60 303.65,307.35 304.80,316.80"/>
        <lane id=":J0_17_1" index="1" speed="10.88" length="27.14" shape="286.40,298.40 293.05,299.55 297.80,303.00 300.65,308.75 301.60,316.80"/>
    </edge>
    <edge id=":J1_0" function="internal">
        <lane id=":J1_0_0" index="0" speed="3.65" length="4.67" shape="301.60,600.00 300.80,601.20 300.00,601.60 299.20,601.20 298.40,600.00"/>
    </edge>
    <edge id=":J2_0" function="internal">
        <lane id=":J2_0_0" index="0" speed="3.65" length="4.67" shape="600.00,298.40 601.20,299.20 601.60,300.00 601.20,300.80 600.00,301.60"/>
    </edge>
    <edge id=":J3_0" function="internal">
        <lane id=":J3_0_0" index="0" speed="3.65" length="4.67" shape="298.40,0.00 299.20,-1.20 300.00,-1.60 300.80,-1.20 301.60,0.00"/>
    </edge>
    <edge id=":J4_0" function="internal">
        <lane id=":J4_0_0" index="0" speed="3.65" length="4.67" shape="0.00,301.60 -1.20,300.80 -1.60,300.00 -1.20,299.20 0.00,298.40"/>
    </edge>

    <edge id="1I" from="J1" to="J0" priority="-1">
        <lane id="1I_0" index="0" speed="13.89" length="283.20" shape="292.00,600.00 292.00,316.80"/>
        <lane id="1I_1" index="1" speed="13.89" length="283.20" shape="295.20,600.00 295.20,316.80"/>
        <lane id="1I_2" index="2" speed="13.89" length="283.20" shape="298.40,600.00 298.40,316.80"/>
    </edge>
    <edge id="1O" from="J0" to="J1" priority="-1">
        <lane id="1O_0" index="0" speed="13.89" length="283.20" shape="314.40,316.80 314.40,600.00"/>
        <lane id="1O_1" index="1" speed="13.89" length="283.20" shape="311.20,316.80 311.20,600.00"/>
        <lane id="1O_2" index="2" speed="13.89" length="283.20" shape="308.00,316.80 308.00,600.00"/>
        <lane id="1O_3" index="3" speed="13.89" length="283.20" shape="304.80,316.80 304.80,600.00"/>
        <lane id="1O_4" index="4" speed="13.89" length="283.20" shape="301.60,316.80 301.60,600.00"/>
    </edge>
    <edge id="2I" from="J2" to="J0" priority="-1">
        <lane id="2I_0" index="0" speed="13.89" length="280.00" shape="600.00,311.20 320.00,311.20"/>
        <lane id="2I_1" index="1" speed="13.89" length="280.00" shape="600.00,308.00 320.00,308.00"/>
        <lane id="2I_2" index="2" speed="13.89" length="280.00" shape="600.00,304.80 320.00,304.80"/>
        <lane id="2I_3" index="3" speed="13.89" length="280.00" shape="600.00,301.60 320.00,301.60"/>
    </edge>
    <edge id="2O" from="J0" to="J2" priority="-1">
        <lane id="2O_0" index="0" speed="13.89" length="280.00" shape="320.00,279.20 600.00,279.20"/>
        <lane id="2O_1" index="1" speed="13.89" length="280.00" shape="320.00,282.40 600.00,282.40"/>
        <lane id="2O_2" index="2" speed="13.89" length="280.00" shape="320.00,285.60 600.00,285.60"/>
        <lane id="2O_3" index="3" speed="13.89" length="280.00" shape="320.00,288.80 600.00,288.80"/>
        <lane id="2O_4" index="4" speed="13.89" length="280.00" shape="320.00,292.00 600.00,292.00"/>
        <lane id="2O_5" index="5" speed="13.89" length="280.00" shape="320.00,295.20 600.00,295.20"/>
        <lane id="2O_6" index="6" speed="13.89" length="280.00" shape="320.00,298.40 600.00,298.40"/>
    </edge>
    <edge id="3I" from="J3" to="J0" priority="-1">
        <lane id="3I_0" index="0" speed="13.89" length="273.60" shape="314.40,0.00 314.40,273.60"/>
        <lane id="3I_1" index="1" speed="13.89" length="273.60" shape="311.20,0.00 311.20,273.60"/>
        <lane id="3I_2" index="2" speed="13.89" length="273.60" shape="308.00,0.00 308.00,273.60"/>
        <lane id="3I_3" index="3" speed="13.89" length="273.60" shape="304.80,0.00 304.80,273.60"/>
        <lane id="3I_4" index="4" speed="13.89" length="273.60" shape="301.60,0.00 301.60,273.60"/>
    </edge>
    <edge id="3O" from="J0" to="J3" priority="-1">
        <lane id="3O_0" index="0" speed="13.89" length="273.60" shape="292.00,273.60 292.00,0.00"/>
        <lane id="3O_1" index="1" speed="13.89" length="273.60" shape="295.20,273.60 295.20,0.00"/>
        <lane id="3O_2" index="2" speed="13.89" length="273.60" shape="298.40,273.60 298.40,0.00"/>
    </edge>
    <edge id="4I" from="J4" to="J0" priority="-1">
        <lane id="4I_0" index="0" speed="13.89" length="286.40" shape="0.00,279.20 286.40,279.20"/>
        <lane id="4I_1" index="1" speed="13.89" length="286.40" shape="0.00,282.40 286.40,282.40"/>
        <lane id="4I_2" index="2" speed="13.89" length="286.40" shape="0.00,285.60 286.40,285.60"/>
        <lane id="4I_3" index="3" speed="13.89" length="286.40" shape="0.00,288.80 286.40,288.80"/>
        <lane id="4I_4" index="4" speed="13.89" length="286.40" shape="0.00,292.00 286.40,292.00"/>
        <lane id="4I_5" index="5" speed="13.89" length="286.40" shape="0.00,295.20 286.40,295.20"/>
        <lane id="4I_6" index="6" speed="13.89" length="286.40" shape="0.00,298.40 286.40,298.40"/>
    </edge>
    <edge id="4O" from="J0" to="J4" priority="-1">
        <lane id="4O_0" index="0" speed="13.89" length="286.40" shape="286.40,311.20 0.00,311.20"/>
        <lane id="4O_1" index="1" speed="13.89" length="286.40" shape="286.40,308.00 0.00,308.00"/>
        <lane id="4O_2" index="2" speed="13.89" length="286.40" shape="286.40,304.80 0.00,304.80"/>
        <lane id="4O_3" index="3" speed="13.89" length="286.40" shape="286.40,301.60 0.00,301.60"/>
    </edge>

    <tlLogic id="J0" type="static" programID="0" offset="0">
        <phase duration="15" state="rrGGGrrrrrGGGrrrrrr"/>
        <phase duration="3"  state="rrYYYrrrrrYYYrrrrrr"/>
        <phase duration="15" state="GGrrrrrGGGrrrrrrrrr"/>
        <phase duration="3"  state="GYrrrrrGGYrrrrrrrrr"/>
        <phase duration="15" state="GrrrrrGGGrrrrrrrrGG"/>
        <phase duration="3"  state="YrrrrrYYYrrrrrrrrYY"/>
        <phase duration="15" state="rrrGGGrrrrrrGGGGGrr"/>
        <phase duration="3"  state="rrrGGYrrrrrrGYYYYrr"/>
    </tlLogic>

    <junction id="J0" type="traffic_light" x="300.00" y="300.00" incLanes="1I_0 1I_1 1I_2 2I_0 2I_1 2I_2 2I_3 3I_0 3I_1 3I_2 3I_3 3I_4 4I_0 4I_1 4I_2 4I_3 4I_4 4I_5 4I_6" intLanes=":J0_0_0 :J0_1_0 :J0_2_0 :J0_3_0 :J0_3_1 :J0_5_0 :J0_6_0 :J0_7_0 :J0_7_1 :J0_9_0 :J0_10_0 :J0_10_1 :J0_12_0 :J0_13_0 :J0_13_1 :J0_13_2 :J0_13_3 :J0_17_0 :J0_17_1" shape="290.40,316.80 316.00,316.80 316.44,314.58 317.00,313.80 317.78,313.24 318.78,312.91 320.00,312.80 320.00,277.60 317.78,277.16 317.00,276.60 316.44,275.82 316.11,274.82 316.00,273.60 290.40,273.60 289.96,275.82 289.40,276.60 288.62,277.16 287.62,277.49 286.40,277.60 286.40,312.80 288.62,313.24 289.40,313.80 289.96,314.58 290.29,315.58">
        <request index="0"  response="0000000000000000000" foes="0000000000000000000" cont="0"/>
        <request index="1"  response="1111110000000100000" foes="1111110110000100000" cont="0"/>
        <request index="2"  response="1100000001001100000" foes="1100000001001100000" cont="0"/>
        <request index="3"  response="0000000000000000000" foes="0000000000000000000" cont="0"/>
        <request index="4"  response="0000000000000000000" foes="0000000000000000000" cont="0"/>
        <request index="5"  response="0000000000000000000" foes="1100000111000000110" cont="0"/>
        <request index="6"  response="0011110000000000000" foes="0011110111000000100" cont="0"/>
        <request index="7"  response="0011110000000000000" foes="0011110000000000000" cont="0"/>
        <request index="8"  response="0011110000000000000" foes="0011110000000000000" cont="0"/>
        <request index="9"  response="0011110000001100000" foes="0011110000001100100" cont="0"/>
        <request index="10" response="1111110000001100010" foes="1111110000001100010" cont="0"/>
        <request index="11" response="1111110000001100010" foes="1111110000001100010" cont="0"/>
        <request index="12" response="0000000000000000000" foes="0000000000000000000" cont="0"/>
        <request index="13" response="0000000000000000000" foes="0000000111111000010" cont="0"/>
        <request index="14" response="0000000000000000000" foes="0000000111111000010" cont="0"/>
        <request index="15" response="0000000000000000000" foes="0000000111111000010" cont="0"/>
        <request index="16" response="0000000000000000000" foes="0000000111111000010" cont="0"/>
        <request index="17" response="0000000000000100000" foes="0000000110000100110" cont="0"/>
        <request index="18" response="0000000000000100000" foes="0000000110000100110" cont="0"/>
    </junction>
    <junction id="J1" type="priority" x="300.00" y="600.00" incLanes="1O_0 1O_1 1O_2 1O_3 1O_4" intLanes=":J1_0_0" shape="300.00,600.00 316.00,600.00 300.00,600.00">
        <request index="0" response="0" foes="0" cont="0"/>
    </junction>
    <junction id="J2" type="priority" x="600.00" y="300.00" incLanes="2O_0 2O_1 2O_2 2O_3 2O_4 2O_5 2O_6" intLanes=":J2_0_0" shape="600.00,300.00 600.00,277.60 600.00,300.00">
        <request index="0" response="0" foes="0" cont="0"/>
    </junction>
    <junction id="J3" type="priority" x="300.00" y="0.00" incLanes="3O_0 3O_1 3O_2" intLanes=":J3_0_0" shape="300.00,0.00 290.40,0.00 300.00,0.00">
        <request index="0" response="0" foes="0" cont="0"/>
    </junction>
    <junction id="J4" type="priority" x="0.00" y="300.00" incLanes="4O_0 4O_1 4O_2 4O_3" intLanes=":J4_0_0" shape="0.00,300.00 0.00,312.80 0.00,300.00">
        <request index="0" response="0" foes="0" cont="0"/>
    </junction>

    <connection from="1I" to="4O" fromLane="0" toLane="0" contPos="0.00" via=":J0_0_0" tl="J0" linkIndex="0" dir="r" state="O"/>
    <connection from="1I" to="3O" fromLane="1" toLane="1" contPos="0.00" via=":J0_1_0" tl="J0" linkIndex="1" dir="s" state="o"/>
    <connection from="1I" to="2O" fromLane="2" toLane="6" contPos="0.00" via=":J0_2_0" tl="J0" linkIndex="2" dir="l" state="o"/>
    <connection from="1O" to="1I" fromLane="4" toLane="2" via=":J1_0_0" dir="t" state="M"/>
    <connection from="2I" to="1O" fromLane="0" toLane="0" contPos="0.00" via=":J0_3_0" tl="J0" linkIndex="3" dir="r" state="O"/>
    <connection from="2I" to="1O" fromLane="1" toLane="1" contPos="0.00" via=":J0_3_1" tl="J0" linkIndex="4" dir="r" state="O"/>
    <connection from="2I" to="4O" fromLane="2" toLane="2" contPos="0.00" via=":J0_5_0" tl="J0" linkIndex="5" dir="s" state="O"/>
    <connection from="2I" to="3O" fromLane="3" toLane="2" contPos="0.00" via=":J0_6_0" tl="J0" linkIndex="6" dir="l" state="o"/>
    <connection from="2O" to="2I" fromLane="6" toLane="3" via=":J2_0_0" dir="t" state="M"/>
    <connection from="3I" to="2O" fromLane="0" toLane="0" contPos="0.00" via=":J0_7_0" tl="J0" linkIndex="7" dir="r" state="o"/>
    <connection from="3I" to="2O" fromLane="1" toLane="1" contPos="0.00" via=":J0_7_1" tl="J0" linkIndex="8" dir="r" state="o"/>
    <connection from="3I" to="1O" fromLane="2" toLane="2" contPos="0.00" via=":J0_9_0" tl="J0" linkIndex="9" dir="s" state="o"/>
    <connection from="3I" to="4O" fromLane="3" toLane="2" contPos="0.00" via=":J0_10_0" tl="J0" linkIndex="10" dir="l" state="o"/>
    <connection from="3I" to="4O" fromLane="4" toLane="3" contPos="0.00" via=":J0_10_1" tl="J0" linkIndex="11" dir="l" state="o"/>
    <connection from="3O" to="3I" fromLane="2" toLane="4" via=":J3_0_0" dir="t" state="M"/>
    <connection from="4I" to="3O" fromLane="0" toLane="0" contPos="0.00" via=":J0_12_0" tl="J0" linkIndex="12" dir="r" state="O"/>
    <connection from="4I" to="2O" fromLane="1" toLane="1" contPos="0.00" via=":J0_13_0" tl="J0" linkIndex="13" dir="s" state="O"/>
    <connection from="4I" to="2O" fromLane="2" toLane="2" contPos="0.00" via=":J0_13_1" tl="J0" linkIndex="14" dir="s" state="O"/>
    <connection from="4I" to="2O" fromLane="3" toLane="3" contPos="0.00" via=":J0_13_2" tl="J0" linkIndex="15" dir="s" state="O"/>
    <connection from="4I" to="2O" fromLane="4" toLane="4" contPos="0.00" via=":J0_13_3" tl="J0" linkIndex="16" dir="s" state="O"/>
    <connection from="4I" to="1O" fromLane="5" toLane="3" contPos="0.00" via=":J0_17_0" tl="J0" linkIndex="17" dir="l" state="o"/>
    <connection from="4I" to="1O" fromLane="6" toLane="4" contPos="0.00" via=":J0_17_1" tl="J0" linkIndex="18" dir="l" state="o"/>
    <connection from="4O" to="4I" fromLane="3" toLane="6" via=":J4_0_0" dir="t" state="M"/>

    <connection from=":J0_0" to="4O" fromLane="0" toLane="0" dir="r" state="M"/>
    <connection from=":J0_1" to="3O" fromLane="0" toLane="1" dir="s" state="M"/>
    <connection from=":J0_2" to="2O" fromLane="0" toLane="6" dir="l" state="M"/>
    <connection from=":J0_3" to="1O" fromLane="0" toLane="0" dir="r" state="M"/>
    <connection from=":J0_3" to="1O" fromLane="1" toLane="1" dir="r" state="M"/>
    <connection from=":J0_5" to="4O" fromLane="0" toLane="2" dir="s" state="M"/>
    <connection from=":J0_6" to="3O" fromLane="0" toLane="2" dir="l" state="M"/>
    <connection from=":J0_7" to="2O" fromLane="0" toLane="0" dir="r" state="M"/>
    <connection from=":J0_7" to="2O" fromLane="1" toLane="1" dir="r" state="M"/>
    <connection from=":J0_9" to="1O" fromLane="0" toLane="2" dir="s" state="M"/>
    <connection from=":J0_10" to="4O" fromLane="0" toLane="2" dir="l" state="M"/>
    <connection from=":J0_10" to="4O" fromLane="1" toLane="3" dir="l" state="M"/>
    <connection from=":J0_12" to="3O" fromLane="0" toLane="0" dir="r" state="M"/>
    <connection from=":J0_13" to="2O" fromLane="0" toLane="1" dir="s" state="M"/>
    <connection from=":J0_13" to="2O" fromLane="1" toLane="2" dir="s" state="M"/>
    <connection from=":J0_13" to="2O" fromLane="2" toLane="3" dir="s" state="M"/>
    <connection from=":J0_13" to="2O" fromLane="3" toLane="4" dir="s" state="M"/>
    <connection from=":J0_17" to="1O" fromLane="0" toLane="3" dir="l" state="M"/>
    <connection from=":J0_17" to="1O" fromLane="1" toLane="4" dir="l" state="M"/>
    <connection from=":J1_0" to="1I" fromLane="0" toLane="2" dir="t" state="M"/>
    <connection from=":J2_0" to="2I" fromLane="0" toLane="3" dir="t" state="M"/>
    <connection from=":J3_0" to="3I" fromLane="0" toLane="4" dir="t" state="M"/>
    <connection from=":J4_0" to="4I" fromLane="0" toLane="6" dir="t" state="M"/>

</net>
