<?xml version="1.0" encoding="UTF-8"?>

<!-- generated on 2022-04-07 14:04:53 by Eclipse SUMO netconvert Version 1.9.2
<configuration xmlns:xsi="http://www.w3.org/2001/XMLSchema-instance" xsi:noNamespaceSchemaLocation="http://sumo.dlr.de/xsd/netconvertConfiguration.xsd">

    <input>
        <node-files value="network/inputs/input.nod.xml"/>
        <edge-files value="network/inputs/input_3_3_5_5.edg.xml"/>
        <connection-files value="network/inputs/input_rsl_rsl_rssll_rrssl.con.xml"/>
        <tllogic-files value="network/inputs/input_rsl_rsl_rssll_rrssl.tll.xml"/>
    </input>

    <output>
        <output-file value="network/rsl_rsl_rssll_rrssl.net.xml"/>
    </output>

    <report>
        <no-warnings value="true"/>
        <aggregate-warnings value="5"/>
        <log value="network/log/rsl_rsl_rssll_rrssl.log.xml"/>
    </report>

</configuration>
-->

<net version="1.9" junctionCornerDetail="5" limitTurnSpeed="5.50" xmlns:xsi="http://www.w3.org/2001/XMLSchema-instance" xsi:noNamespaceSchemaLocation="http://sumo.dlr.de/xsd/net_file.xsd">

    <location netOffset="300.00,300.00" convBoundary="0.00,0.00,600.00,600.00" origBoundary="-300.00,-300.00,300.00,300.00" projParameter="!"/>

    <edge id=":J0_0" function="internal">
        <lane id=":J0_0_0" index="0" speed="6.51" length="9.03" shape="292.00,313.60 291.65,311.15 290.60,309.40 288.85,308.35 286.40,308.00"/>
    </edge>
    <edge id=":J0_1" function="internal">
        <lane id=":J0_1_0" index="0" speed="13.89" length="33.60" shape="295.20,313.60 295.20,280.00"/>
    </edge>
    <edge id=":J0_2" function="internal">
        <lane id=":J0_2_0" index="0" speed="11.39" length="29.85" shape="298.40,313.60 299.75,306.95 303.80,302.20 310.55,299.35 320.00,298.40"/>
    </edge>
    <edge id=":J0_3" function="internal">
        <lane id=":J0_3_0" index="0" speed="6.51" length="9.03" shape="320.00,308.00 317.55,308.35 315.80,309.40 314.75,311.15 314.40,313.60"/>
    </edge>
    <edge id=":J0_4" function="internal">
        <lane id=":J0_4_0" index="0" speed="13.89" length="33.60" shape="320.00,304.80 286.40,304.80"/>
    </edge>
    <edge id=":J0_5" function="internal">
        <lane id=":J0_5_0" index="0" speed="12.28" length="34.84" shape="320.00,301.60 310.55,300.25 303.80,296.20 299.75,289.45 298.40,280.00"/>
    </edge>
    <edge id=":J0_6" function="internal">
        <lane id=":J0_6_0" index="0" speed="6.51" length="9.03" shape="314.40,280.00 314.75,282.45 315.80,284.20 317.55,285.25 320.00,285.60"/>
    </edge>
    <edge id=":J0_7" function="internal">
        <lane id=":J0_7_0" index="0" speed="13.89" length="33.60" shape="311.20,280.00 311.20,313.60"/>
        <lane id=":J0_7_1" index="1" speed="13.89" length="33.60" shape="308.00,280.00 308.00,313.60"/>
    </edge>
    <edge id=":J0_9" function="internal">
        <lane id=":J0_9_0" index="0" speed="12.30" length="34.99" shape="304.80,280.00 303.65,290.85 300.20,298.60 294.45,303.25 286.40,304.80"/>
        <lane id=":J0_9_1" index="1" speed="11.39" length="29.85" shape="301.60,280.00 300.65,289.45 297.80,296.20 293.05,300.25 286.40,301.60"/>
    </edge>
    <edge id=":J0_11" function="internal">
        <lane id=":J0_11_0" index="0" speed="6.51" length="9.03" shape="286.40,285.60 288.85,285.25 290.60,284.20 291.65,282.45 292.00,280.00"/>
        <lane id=":J0_11_1" index="1" speed="8.00" length="14.19" shape="286.40,288.80 290.25,288.25 293.00,286.60 294.65,283.85 295.20,280.00"/>
    </edge>
    <edge id=":J0_13" function="internal">
        <lane id=":J0_13_0" index="0" speed="13.89" length="33.60" shape="286.40,292.00 320.00,292.00"/>
        <lane id=":J0_13_1" index="1" speed="13.89" length="33.60" shape="286.40,295.20 320.00,295.20"/>
    </edge>
    <edge id=":J0_15" function="internal">
        <lane id=":J0_15_0" index="0" speed="10.36" length="24.51" shape="286.40,298.40 293.05,299.35 297.80,302.20 300.65,306.95 301.60,313.60"/>
    </edge>
    <edge id=":J1_0" function="internal">
        <lane id=":J1_0_0" index="0" speed="3.65" length="4.67" shape="301.60,600.00 300.80,601.20 300.00,601.60 299.20,601.20 298.40,600.00"/>
    </edge>
    <edge id=":J2_0" function="internal">
        <lane id=":J2_0_0" index="0" speed="3.65" length="4.67" shape="600.00,298.40 601.20,299.20 601.60,300.00 601.20,300.80 600.00,301.60"/>
    </edge>
    <edge id=":J3_0" function="internal">
        <lane id=":J3_0_0" index="0" speed="3.65" length="4.67" shape="298.40,0.00 299.20,-1.20 300.00,-1.60 300.80,-1.20 301.60,0.00"/>
    </edge>
    <edge id=":J4_0" function="internal">
        <lane id=":J4_0_0" index="0" speed="3.65" length="4.67" shape="0.00,301.60 -1.20,300.80 -1.60,300.00 -1.20,299.20 0.00,298.40"/>
    </edge>

    <edge id="1I" from="J1" to="J0" priority="-1">
        <lane id="1I_0" index="0" speed="13.89" length="286.40" shape="292.00,600.00 292.00,313.60"/>
        <lane id="1I_1" index="1" speed="13.89" length="286.40" shape="295.20,600.00 295.20,313.60"/>
        <lane id="1I_2" index="2" speed="13.89" length="286.40" shape="298.40,600.00 298.40,313.60"/>
    </edge>
    <edge id="1O" from="J0" to="J1" priority="-1">
        <lane id="1O_0" index="0" speed="13.89" length="286.40" shape="314.40,313.60 314.40,600.00"/>
        <lane id="1O_1" index="1" speed="13.89" length="286.40" shape="311.20,313.60 311.20,600.00"/>
        <lane id="1O_2" index="2" speed="13.89" length="286.40" shape="308.00,313.60 308.00,600.00"/>
        <lane id="1O_3" index="3" speed="13.89" length="286.40" shape="304.80,313.60 304.80,600.00"/>
        <lane id="1O_4" index="4" speed="13.89" length="286.40" shape="301.60,313.60 301.60,600.00"/>
    </edge>
    <edge id="2I" from="J2" to="J0" priority="-1">
        <lane id="2I_0" index="0" speed="13.89" length="280.00" shape="600.00,308.00 320.00,308.00"/>
        <lane id="2I_1" index="1" speed="13.89" length="280.00" shape="600.00,304.80 320.00,304.80"/>
        <lane id="2I_2" index="2" speed="13.89" length="280.00" shape="600.00,301.60 320.00,301.60"/>
    </edge>
    <edge id="2O" from="J0" to="J2" priority="-1">
        <lane id="2O_0" index="0" speed="13.89" length="280.00" shape="320.00,285.60 600.00,285.60"/>
        <lane id="2O_1" index="1" speed="13.89" length="280.00" shape="320.00,288.80 600.00,288.80"/>
        <lane id="2O_2" index="2" speed="13.89" length="280.00" shape="320.00,292.00 600.00,292.00"/>
        <lane id="2O_3" index="3" speed="13.89" length="280.00" shape="320.00,295.20 600.00,295.20"/>
        <lane id="2O_4" index="4" speed="13.89" length="280.00" shape="320.00,298.40 600.00,298.40"/>
    </edge>
    <edge id="3I" from="J3" to="J0" priority="-1">
        <lane id="3I_0" index="0" speed="13.89" length="280.00" shape="314.40,0.00 314.40,280.00"/>
        <lane id="3I_1" index="1" speed="13.89" length="280.00" shape="311.20,0.00 311.20,280.00"/>
        <lane id="3I_2" index="2" speed="13.89" length="280.00" shape="308.00,0.00 308.00,280.00"/>
        <lane id="3I_3" index="3" speed="13.89" length="280.00" shape="304.80,0.00 304.80,280.00"/>
        <lane id="3I_4" index="4" speed="13.89" length="280.00" shape="301.60,0.00 301.60,280.00"/>
    </edge>
    <edge id="3O" from="J0" to="J3" priority="-1">
        <lane id="3O_0" index="0" speed="13.89" length="280.00" shape="292.00,280.00 292.00,0.00"/>
        <lane id="3O_1" index="1" speed="13.89" length="280.00" shape="295.20,280.00 295.20,0.00"/>
        <lane id="3O_2" index="2" speed="13.89" length="280.00" shape="298.40,280.00 298.40,0.00"/>
    </edge>
    <edge id="4I" from="J4" to="J0" priority="-1">
        <lane id="4I_0" index="0" speed="13.89" length="286.40" shape="0.00,285.60 286.40,285.60"/>
        <lane id="4I_1" index="1" speed="13.89" length="286.40" shape="0.00,288.80 286.40,288.80"/>
        <lane id="4I_2" index="2" speed="13.89" length="286.40" shape="0.00,292.00 286.40,292.00"/>
        <lane id="4I_3" index="3" speed="13.89" length="286.40" shape="0.00,295.20 286.40,295.20"/>
        <lane id="4I_4" index="4" speed="13.89" length="286.40" shape="0.00,298.40 286.40,298.40"/>
    </edge>
    <edge id="4O" from="J0" to="J4" priority="-1">
        <lane id="4O_0" index="0" speed="13.89" length="286.40" shape="286.40,308.00 0.00,308.00"/>
        <lane id="4O_1" index="1" speed="13.89" length="286.40" shape="286.40,304.80 0.00,304.80"/>
        <lane id="4O_2" index="2" speed="13.89" length="286.40" shape="286.40,301.60 0.00,301.60"/>
    </edge>

    <tlLogic id="J0" type="static" programID="0" offset="0">
        <phase duration="15" state="rrGGrrrrrGGGGrrr"/>
        <phase duration="3"  state="rrYYrrrrrYYYYrrr"/>
        <phase duration="15" state="GGrrrrGGGrrrrrrr"/>
        <phase duration="3"  state="GYrrrrGYYrrrrrrr"/>
        <phase duration="15" state="GrrrrGGrrrrrrrrG"/>
        <phase duration="3"  state="YrrrrYYrrrrrrrrY"/>
        <phase duration="15" state="rrrGGrrrrrrGGGGr"/>
        <phase duration="3"  state="rrrGYrrrrrrGGYYr"/>
    </tlLogic>

    <junction id="J0" type="traffic_light" x="300.00" y="300.00" incLanes="1I_0 1I_1 1I_2 2I_0 2I_1 2I_2 3I_0 3I_1 3I_2 3I_3 3I_4 4I_0 4I_1 4I_2 4I_3 4I_4" intLanes=":J0_0_0 :J0_1_0 :J0_2_0 :J0_3_0 :J0_4_0 :J0_5_0 :J0_6_0 :J0_7_0 :J0_7_1 :J0_9_0 :J0_9_1 :J0_11_0 :J0_11_1 :J0_13_0 :J0_13_1 :J0_15_0" shape="290.40,313.60 316.00,313.60 316.44,311.38 317.00,310.60 317.78,310.04 318.78,309.71 320.00,309.60 320.00,284.00 317.78,283.56 317.00,283.00 316.44,282.22 316.11,281.22 316.00,280.00 290.40,280.00 289.96,282.22 289.40,283.00 288.62,283.56 287.62,283.89 286.40,284.00 286.40,309.60 288.62,310.04 289.40,310.60 289.96,311.38 290.29,312.38">
        <request index="0"  response="0000000000000000" foes="0000000000000000" cont="0"/>
        <request index="1"  response="0000000000000000" foes="1111111000010000" cont="0"/>
        <request index="2"  response="0000000110000000" foes="1000000110110000" cont="0"/>
        <request index="3"  response="0000000000000000" foes="0000000000000000" cont="0"/>
        <request index="4"  response="0000011110000110" foes="1000011110000110" cont="0"/>
        <request index="5"  response="0110011110000100" foes="0110011110000100" cont="0"/>
        <request index="6"  response="0000000000000000" foes="0000000000000000" cont="0"/>
        <request index="7"  response="0000000000000000" foes="0110000000110100" cont="0"/>
        <request index="8"  response="0000000000000000" foes="0110000000110100" cont="0"/>
        <request index="9"  response="0000000000000010" foes="1110000000110010" cont="0"/>
        <request index="10" response="0000000000000010" foes="1110000000110010" cont="0"/>
        <request index="11" response="0000000000000010" foes="0000000000000010" cont="0"/>
        <request index="12" response="0000000000000010" foes="0000000000000010" cont="0"/>
        <request index="13" response="0000011110000010" foes="0000011110100010" cont="0"/>
        <request index="14" response="0000011110000010" foes="0000011110100010" cont="0"/>
        <request index="15" response="0000011000010110" foes="0000011000010110" cont="0"/>
    </junction>
    <junction id="J1" type="priority" x="300.00" y="600.00" incLanes="1O_0 1O_1 1O_2 1O_3 1O_4" intLanes=":J1_0_0" shape="300.00,600.00 316.00,600.00 300.00,600.00">
        <request index="0" response="0" foes="0" cont="0"/>
    </junction>
    <junction id="J2" type="priority" x="600.00" y="300.00" incLanes="2O_0 2O_1 2O_2 2O_3 2O_4" intLanes=":J2_0_0" shape="600.00,300.00 600.00,284.00 600.00,300.00">
        <request index="0" response="0" foes="0" cont="0"/>
    </junction>
    <junction id="J3" type="priority" x="300.00" y="0.00" incLanes="3O_0 3O_1 3O_2" intLanes=":J3_0_0" shape="300.00,0.00 290.40,0.00 300.00,0.00">
        <request index="0" response="0" foes="0" cont="0"/>
    </junction>
    <junction id="J4" type="priority" x="0.00" y="300.00" incLanes="4O_0 4O_1 4O_2" intLanes=":J4_0_0" shape="0.00,300.00 0.00,309.60 0.00,300.00">
        <request index="0" response="0" foes="0" cont="0"/>
    </junction>

    <connection from="1I" to="4O" fromLane="0" toLane="0" contPos="0.00" via=":J0_0_0" tl="J0" linkIndex="0" dir="r" state="O"/>
    <connection from="1I" to="3O" fromLane="1" toLane="1" contPos="0.00" via=":J0_1_0" tl="J0" linkIndex="1" dir="s" state="O"/>
    <connection from="1I" to="2O" fromLane="2" toLane="4" contPos="0.00" via=":J0_2_0" tl="J0" linkIndex="2" dir="l" state="o"/>
    <connection from="1O" to="1I" fromLane="4" toLane="2" via=":J1_0_0" dir="t" state="M"/>
    <connection from="2I" to="1O" fromLane="0" toLane="0" contPos="0.00" via=":J0_3_0" tl="J0" linkIndex="3" dir="r" state="O"/>
    <connection from="2I" to="4O" fromLane="1" toLane="1" contPos="0.00" via=":J0_4_0" tl="J0" linkIndex="4" dir="s" state="o"/>
    <connection from="2I" to="3O" fromLane="2" toLane="2" contPos="0.00" via=":J0_5_0" tl="J0" linkIndex="5" dir="l" state="o"/>
    <connection from="2O" to="2I" fromLane="4" toLane="2" via=":J2_0_0" dir="t" state="M"/>
    <connection from="3I" to="2O" fromLane="0" toLane="0" contPos="0.00" via=":J0_6_0" tl="J0" linkIndex="6" dir="r" state="O"/>
    <connection from="3I" to="1O" fromLane="1" toLane="1" contPos="0.00" via=":J0_7_0" tl="J0" linkIndex="7" dir="s" state="O"/>
    <connection from="3I" to="1O" fromLane="2" toLane="2" contPos="0.00" via=":J0_7_1" tl="J0" linkIndex="8" dir="s" state="O"/>
    <connection from="3I" to="4O" fromLane="3" toLane="1" contPos="0.00" via=":J0_9_0" tl="J0" linkIndex="9" dir="l" state="o"/>
    <connection from="3I" to="4O" fromLane="4" toLane="2" contPos="0.00" via=":J0_9_1" tl="J0" linkIndex="10" dir="l" state="o"/>
    <connection from="3O" to="3I" fromLane="2" toLane="4" via=":J3_0_0" dir="t" state="M"/>
    <connection from="4I" to="3O" fromLane="0" toLane="0" contPos="0.00" via=":J0_11_0" tl="J0" linkIndex="11" dir="r" state="o"/>
    <connection from="4I" to="3O" fromLane="1" toLane="1" contPos="0.00" via=":J0_11_1" tl="J0" linkIndex="12" dir="r" state="o"/>
    <connection from="4I" to="2O" fromLane="2" toLane="2" contPos="0.00" via=":J0_13_0" tl="J0" linkIndex="13" dir="s" state="o"/>
    <connection from="4I" to="2O" fromLane="3" toLane="3" contPos="0.00" via=":J0_13_1" tl="J0" linkIndex="14" dir="s" state="o"/>
    <connection from="4I" to="1O" fromLane="4" toLane="4" contPos="0.00" via=":J0_15_0" tl="J0" linkIndex="15" dir="l" state="o"/>
    <connection from="4O" to="4I" fromLane="2" toLane="4" via=":J4_0_0" dir="t" state="M"/>

    <connection from=":J0_0" to="4O" fromLane="0" toLane="0" dir="r" state="M"/>
    <connection from=":J0_1" to="3O" fromLane="0" toLane="1" dir="s" state="M"/>
    <connection from=":J0_2" to="2O" fromLane="0" toLane="4" dir="l" state="M"/>
    <connection from=":J0_3" to="1O" fromLane="0" toLane="0" dir="r" state="M"/>
    <connection from=":J0_4" to="4O" fromLane="0" toLane="1" dir="s" state="M"/>
    <connection from=":J0_5" to="3O" fromLane="0" toLane="2" dir="l" state="M"/>
    <connection from=":J0_6" to="2O" fromLane="0" toLane="0" dir="r" state="M"/>
    <connection from=":J0_7" to="1O" fromLane="0" toLane="1" dir="s" state="M"/>
    <connection from=":J0_7" to="1O" fromLane="1" toLane="2" dir="s" state="M"/>
    <connection from=":J0_9" to="4O" fromLane="0" toLane="1" dir="l" state="M"/>
    <connection from=":J0_9" to="4O" fromLane="1" toLane="2" dir="l" state="M"/>
    <connection from=":J0_11" to="3O" fromLane="0" toLane="0" dir="r" state="M"/>
    <connection from=":J0_11" to="3O" fromLane="1" toLane="1" dir="r" state="M"/>
    <connection from=":J0_13" to="2O" fromLane="0" toLane="2" dir="s" state="M"/>
    <connection from=":J0_13" to="2O" fromLane="1" toLane="3" dir="s" state="M"/>
    <connection from=":J0_15" to="1O" fromLane="0" toLane="4" dir="l" state="M"/>
    <connection from=":J1_0" to="1I" fromLane="0" toLane="2" dir="t" state="M"/>
    <connection from=":J2_0" to="2I" fromLane="0" toLane="2" dir="t" state="M"/>
    <connection from=":J3_0" to="3I" fromLane="0" toLane="4" dir="t" state="M"/>
    <connection from=":J4_0" to="4I" fromLane="0" toLane="4" dir="t" state="M"/>

</net>
