<?xml version="1.0" encoding="UTF-8"?>

<!-- generated on 2022-04-07 14:04:59 by Eclipse SUMO netconvert Version 1.9.2
<configuration xmlns:xsi="http://www.w3.org/2001/XMLSchema-instance" xsi:noNamespaceSchemaLocation="http://sumo.dlr.de/xsd/netconvertConfiguration.xsd">

    <input>
        <node-files value="network/inputs/input.nod.xml"/>
        <edge-files value="network/inputs/input_3_4_7_4.edg.xml"/>
        <connection-files value="network/inputs/input_rsl_rssl_rrssssl_rssl.con.xml"/>
        <tllogic-files value="network/inputs/input_rsl_rssl_rrssssl_rssl.tll.xml"/>
    </input>

    <output>
        <output-file value="network/rsl_rssl_rrssssl_rssl.net.xml"/>
    </output>

    <report>
        <no-warnings value="true"/>
        <aggregate-warnings value="5"/>
        <log value="network/log/rsl_rssl_rrssssl_rssl.log.xml"/>
    </report>

</configuration>
-->

<net version="1.9" junctionCornerDetail="5" limitTurnSpeed="5.50" xmlns:xsi="http://www.w3.org/2001/XMLSchema-instance" xsi:noNamespaceSchemaLocation="http://sumo.dlr.de/xsd/net_file.xsd">

    <location netOffset="300.00,300.00" convBoundary="0.00,0.00,600.00,600.00" origBoundary="-300.00,-300.00,300.00,300.00" projParameter="!"/>

    <edge id=":J0_0" function="internal">
        <lane id=":J0_0_0" index="0" speed="6.51" length="9.03" shape="292.00,316.80 291.65,314.35 290.60,312.60 288.85,311.55 286.40,311.20"/>
    </edge>
    <edge id=":J0_1" function="internal">
        <lane id=":J0_1_0" index="0" speed="13.89" length="33.60" shape="295.20,316.80 295.20,283.20"/>
    </edge>
    <edge id=":J0_2" function="internal">
        <lane id=":J0_2_0" index="0" speed="12.76" length="37.73" shape="298.40,316.80 300.15,308.75 305.40,303.00 314.15,299.55 326.40,298.40"/>
    </edge>
    <edge id=":J0_3" function="internal">
        <lane id=":J0_3_0" index="0" speed="6.51" length="9.03" shape="326.40,311.20 323.95,311.55 322.20,312.60 321.15,314.35 320.80,316.80"/>
    </edge>
    <edge id=":J0_4" function="internal">
        <lane id=":J0_4_0" index="0" speed="13.89" length="40.00" shape="326.40,308.00 286.40,308.00"/>
        <lane id=":J0_4_1" index="1" speed="13.89" length="40.00" shape="326.40,304.80 286.40,304.80"/>
    </edge>
    <edge id=":J0_6" function="internal">
        <lane id=":J0_6_0" index="0" speed="12.76" length="37.73" shape="326.40,301.60 314.15,300.45 305.40,297.00 300.15,291.25 298.40,283.20"/>
    </edge>
    <edge id=":J0_7" function="internal">
        <lane id=":J0_7_0" index="0" speed="6.51" length="9.03" shape="320.80,283.20 321.15,285.65 322.20,287.40 323.95,288.45 326.40,288.80"/>
        <lane id=":J0_7_1" index="1" speed="8.00" length="14.19" shape="317.60,283.20 318.15,287.05 319.80,289.80 322.55,291.45 326.40,292.00"/>
    </edge>
    <edge id=":J0_9" function="internal">
        <lane id=":J0_9_0" index="0" speed="13.89" length="33.60" shape="314.40,283.20 314.40,316.80"/>
        <lane id=":J0_9_1" index="1" speed="13.89" length="33.60" shape="311.20,283.20 311.20,316.80"/>
        <lane id=":J0_9_2" index="2" speed="13.89" length="33.60" shape="308.00,283.20 308.00,316.80"/>
        <lane id=":J0_9_3" index="3" speed="13.89" length="33.60" shape="304.80,283.20 304.80,316.80"/>
    </edge>
    <edge id=":J0_13" function="internal">
        <lane id=":J0_13_0" index="0" speed="10.88" length="27.14" shape="301.60,283.20 300.65,291.25 297.80,297.00 293.05,300.45 286.40,301.60"/>
    </edge>
    <edge id=":J0_14" function="internal">
        <lane id=":J0_14_0" index="0" speed="6.51" length="9.03" shape="286.40,288.80 288.85,288.45 290.60,287.40 291.65,285.65 292.00,283.20"/>
    </edge>
    <edge id=":J0_15" function="internal">
        <lane id=":J0_15_0" index="0" speed="13.89" length="40.00" shape="286.40,292.00 326.40,292.00"/>
        <lane id=":J0_15_1" index="1" speed="13.89" length="40.00" shape="286.40,295.20 326.40,295.20"/>
    </edge>
    <edge id=":J0_17" function="internal">
        <lane id=":J0_17_0" index="0" speed="10.88" length="27.14" shape="286.40,298.40 293.05,299.55 297.80,303.00 300.65,308.75 301.60,316.80"/>
    </edge>
    <edge id=":J1_0" function="internal">
        <lane id=":J1_0_0" index="0" speed="3.65" length="4.67" shape="301.60,600.00 300.80,601.20 300.00,601.60 299.20,601.20 298.40,600.00"/>
    </edge>
    <edge id=":J2_0" function="internal">
        <lane id=":J2_0_0" index="0" speed="3.65" length="4.67" shape="600.00,298.40 601.20,299.20 601.60,300.00 601.20,300.80 600.00,301.60"/>
    </edge>
    <edge id=":J3_0" function="internal">
        <lane id=":J3_0_0" index="0" speed="3.65" length="4.67" shape="298.40,0.00 299.20,-1.20 300.00,-1.60 300.80,-1.20 301.60,0.00"/>
    </edge>
    <edge id=":J4_0" function="internal">
        <lane id=":J4_0_0" index="0" speed="3.65" length="4.67" shape="0.00,301.60 -1.20,300.80 -1.60,300.00 -1.20,299.20 0.00,298.40"/>
    </edge>

    <edge id="1I" from="J1" to="J0" priority="-1">
        <lane id="1I_0" index="0" speed="13.89" length="283.20" shape="292.00,600.00 292.00,316.80"/>
        <lane id="1I_1" index="1" speed="13.89" length="283.20" shape="295.20,600.00 295.20,316.80"/>
        <lane id="1I_2" index="2" speed="13.89" length="283.20" shape="298.40,600.00 298.40,316.80"/>
    </edge>
    <edge id="1O" from="J0" to="J1" priority="-1">
        <lane id="1O_0" index="0" speed="13.89" length="283.20" shape="320.80,316.80 320.80,600.00"/>
        <lane id="1O_1" index="1" speed="13.89" length="283.20" shape="317.60,316.80 317.60,600.00"/>
        <lane id="1O_2" index="2" speed="13.89" length="283.20" shape="314.40,316.80 314.40,600.00"/>
        <lane id="1O_3" index="3" speed="13.89" length="283.20" shape="311.20,316.80 311.20,600.00"/>
        <lane id="1O_4" index="4" speed="13.89" length="283.20" shape="308.00,316.80 308.00,600.00"/>
        <lane id="1O_5" index="5" speed="13.89" length="283.20" shape="304.80,316.80 304.80,600.00"/>
        <lane id="1O_6" index="6" speed="13.89" length="283.20" shape="301.60,316.80 301.60,600.00"/>
    </edge>
    <edge id="2I" from="J2" to="J0" priority="-1">
        <lane id="2I_0" index="0" speed="13.89" length="273.60" shape="600.00,311.20 326.40,311.20"/>
        <lane id="2I_1" index="1" speed="13.89" length="273.60" shape="600.00,308.00 326.40,308.00"/>
        <lane id="2I_2" index="2" speed="13.89" length="273.60" shape="600.00,304.80 326.40,304.80"/>
        <lane id="2I_3" index="3" speed="13.89" length="273.60" shape="600.00,301.60 326.40,301.60"/>
    </edge>
    <edge id="2O" from="J0" to="J2" priority="-1">
        <lane id="2O_0" index="0" speed="13.89" length="273.60" shape="326.40,288.80 600.00,288.80"/>
        <lane id="2O_1" index="1" speed="13.89" length="273.60" shape="326.40,292.00 600.00,292.00"/>
        <lane id="2O_2" index="2" speed="13.89" length="273.60" shape="326.40,295.20 600.00,295.20"/>
        <lane id="2O_3" index="3" speed="13.89" length="273.60" shape="326.40,298.40 600.00,298.40"/>
    </edge>
    <edge id="3I" from="J3" to="J0" priority="-1">
        <lane id="3I_0" index="0" speed="13.89" length="283.20" shape="320.80,0.00 320.80,283.20"/>
        <lane id="3I_1" index="1" speed="13.89" length="283.20" shape="317.60,0.00 317.60,283.20"/>
        <lane id="3I_2" index="2" speed="13.89" length="283.20" shape="314.40,0.00 314.40,283.20"/>
        <lane id="3I_3" index="3" speed="13.89" length="283.20" shape="311.20,0.00 311.20,283.20"/>
        <lane id="3I_4" index="4" speed="13.89" length="283.20" shape="308.00,0.00 308.00,283.20"/>
        <lane id="3I_5" index="5" speed="13.89" length="283.20" shape="304.80,0.00 304.80,283.20"/>
        <lane id="3I_6" index="6" speed="13.89" length="283.20" shape="301.60,0.00 301.60,283.20"/>
    </edge>
    <edge id="3O" from="J0" to="J3" priority="-1">
        <lane id="3O_0" index="0" speed="13.89" length="283.20" shape="292.00,283.20 292.00,0.00"/>
        <lane id="3O_1" index="1" speed="13.89" length="283.20" shape="295.20,283.20 295.20,0.00"/>
        <lane id="3O_2" index="2" speed="13.89" length="283.20" shape="298.40,283.20 298.40,0.00"/>
    </edge>
    <edge id="4I" from="J4" to="J0" priority="-1">
        <lane id="4I_0" index="0" speed="13.89" length="286.40" shape="0.00,288.80 286.40,288.80"/>
        <lane id="4I_1" index="1" speed="13.89" length="286.40" shape="0.00,292.00 286.40,292.00"/>
        <lane id="4I_2" index="2" speed="13.89" length="286.40" shape="0.00,295.20 286.40,295.20"/>
        <lane id="4I_3" index="3" speed="13.89" length="286.40" shape="0.00,298.40 286.40,298.40"/>
    </edge>
    <edge id="4O" from="J0" to="J4" priority="-1">
        <lane id="4O_0" index="0" speed="13.89" length="286.40" shape="286.40,311.20 0.00,311.20"/>
        <lane id="4O_1" index="1" speed="13.89" length="286.40" shape="286.40,308.00 0.00,308.00"/>
        <lane id="4O_2" index="2" speed="13.89" length="286.40" shape="286.40,304.80 0.00,304.80"/>
        <lane id="4O_3" index="3" speed="13.89" length="286.40" shape="286.40,301.60 0.00,301.60"/>
    </edge>

    <tlLogic id="J0" type="static" programID="0" offset="0">
        <phase duration="15" state="rrGGrrrrrrrrrGGrrr"/>
        <phase duration="3"  state="rrYYrrrrrrrrrYYrrr"/>
        <phase duration="15" state="GGrrrrrGGGGGGrrrrr"/>
        <phase duration="3"  state="GYrrrrrGGYYYYrrrrr"/>
        <phase duration="15" state="GrrrrrGGGrrrrrrrrG"/>
        <phase duration="3"  state="YrrrrrYYYrrrrrrrrY"/>
        <phase duration="15" state="rrrGGGrrrrrrrrGGGr"/>
        <phase duration="3"  state="rrrGYYrrrrrrrrGYYr"/>
    </tlLogic>

    <junction id="J0" type="traffic_light" x="300.00" y="300.00" incLanes="1I_0 1I_1 1I_2 2I_0 2I_1 2I_2 2I_3 3I_0 3I_1 3I_2 3I_3 3I_4 3I_5 3I_6 4I_0 4I_1 4I_2 4I_3" intLanes=":J0_0_0 :J0_1_0 :J0_2_0 :J0_3_0 :J0_4_0 :J0_4_1 :J0_6_0 :J0_7_0 :J0_7_1 :J0_9_0 :J0_9_1 :J0_9_2 :J0_9_3 :J0_13_0 :J0_14_0 :J0_15_0 :J0_15_1 :J0_17_0" shape="290.40,316.80 322.40,316.80 322.84,314.58 323.40,313.80 324.18,313.24 325.18,312.91 326.40,312.80 326.40,287.20 324.18,286.76 323.40,286.20 322.84,285.42 322.51,284.42 322.40,283.20 290.40,283.20 289.96,285.42 289.40,286.20 288.62,286.76 287.62,287.09 286.40,287.20 286.40,312.80 288.62,313.24 289.40,313.80 289.96,314.58 290.29,315.58">
        <request index="0"  response="000000000000000000" foes="000000000000000000" cont="0"/>
        <request index="1"  response="000000000000000000" foes="111010000000110000" cont="0"/>
        <request index="2"  response="000001111000000000" foes="100001111001110000" cont="0"/>
        <request index="3"  response="000000000000000000" foes="000000000000000000" cont="0"/>
        <request index="4"  response="000001111000000110" foes="100001111000000110" cont="0"/>
        <request index="5"  response="000001111000000110" foes="100001111000000110" cont="0"/>
        <request index="6"  response="011011111000000100" foes="011011111000000100" cont="0"/>
        <request index="7"  response="000000000000000000" foes="011000000000000000" cont="0"/>
        <request index="8"  response="000000000000000000" foes="011000000000000000" cont="0"/>
        <request index="9"  response="000000000000000000" foes="011000000001110100" cont="0"/>
        <request index="10" response="000000000000000000" foes="011000000001110100" cont="0"/>
        <request index="11" response="000000000000000000" foes="011000000001110100" cont="0"/>
        <request index="12" response="000000000000000000" foes="011000000001110100" cont="0"/>
        <request index="13" response="000000000000000010" foes="111000000001000010" cont="0"/>
        <request index="14" response="000000000000000000" foes="000000000000000000" cont="0"/>
        <request index="15" response="000011111110000010" foes="000011111111000010" cont="0"/>
        <request index="16" response="000011111110000010" foes="000011111111000010" cont="0"/>
        <request index="17" response="000010000000110110" foes="000010000000110110" cont="0"/>
    </junction>
    <junction id="J1" type="priority" x="300.00" y="600.00" incLanes="1O_0 1O_1 1O_2 1O_3 1O_4 1O_5 1O_6" intLanes=":J1_0_0" shape="300.00,600.00 322.40,600.00 300.00,600.00">
        <request index="0" response="0" foes="0" cont="0"/>
    </junction>
    <junction id="J2" type="priority" x="600.00" y="300.00" incLanes="2O_0 2O_1 2O_2 2O_3" intLanes=":J2_0_0" shape="600.00,300.00 600.00,287.20 600.00,300.00">
        <request index="0" response="0" foes="0" cont="0"/>
    </junction>
    <junction id="J3" type="priority" x="300.00" y="0.00" incLanes="3O_0 3O_1 3O_2" intLanes=":J3_0_0" shape="300.00,0.00 290.40,0.00 300.00,0.00">
        <request index="0" response="0" foes="0" cont="0"/>
    </junction>
    <junction id="J4" type="priority" x="0.00" y="300.00" incLanes="4O_0 4O_1 4O_2 4O_3" intLanes=":J4_0_0" shape="0.00,300.00 0.00,312.80 0.00,300.00">
        <request index="0" response="0" foes="0" cont="0"/>
    </junction>

    <connection from="1I" to="4O" fromLane="0" toLane="0" contPos="0.00" via=":J0_0_0" tl="J0" linkIndex="0" dir="r" state="O"/>
    <connection from="1I" to="3O" fromLane="1" toLane="1" contPos="0.00" via=":J0_1_0" tl="J0" linkIndex="1" dir="s" state="O"/>
    <connection from="1I" to="2O" fromLane="2" toLane="3" contPos="0.00" via=":J0_2_0" tl="J0" linkIndex="2" dir="l" state="o"/>
    <connection from="1O" to="1I" fromLane="6" toLane="2" via=":J1_0_0" dir="t" state="M"/>
    <connection from="2I" to="1O" fromLane="0" toLane="0" contPos="0.00" via=":J0_3_0" tl="J0" linkIndex="3" dir="r" state="O"/>
    <connection from="2I" to="4O" fromLane="1" toLane="1" contPos="0.00" via=":J0_4_0" tl="J0" linkIndex="4" dir="s" state="o"/>
    <connection from="2I" to="4O" fromLane="2" toLane="2" contPos="0.00" via=":J0_4_1" tl="J0" linkIndex="5" dir="s" state="o"/>
    <connection from="2I" to="3O" fromLane="3" toLane="2" contPos="0.00" via=":J0_6_0" tl="J0" linkIndex="6" dir="l" state="o"/>
    <connection from="2O" to="2I" fromLane="3" toLane="3" via=":J2_0_0" dir="t" state="M"/>
    <connection from="3I" to="2O" fromLane="0" toLane="0" contPos="0.00" via=":J0_7_0" tl="J0" linkIndex="7" dir="r" state="O"/>
    <connection from="3I" to="2O" fromLane="1" toLane="1" contPos="0.00" via=":J0_7_1" tl="J0" linkIndex="8" dir="r" state="O"/>
    <connection from="3I" to="1O" fromLane="2" toLane="2" contPos="0.00" via=":J0_9_0" tl="J0" linkIndex="9" dir="s" state="O"/>
    <connection from="3I" to="1O" fromLane="3" toLane="3" contPos="0.00" via=":J0_9_1" tl="J0" linkIndex="10" dir="s" state="O"/>
    <connection from="3I" to="1O" fromLane="4" toLane="4" contPos="0.00" via=":J0_9_2" tl="J0" linkIndex="11" dir="s" state="O"/>
    <connection from="3I" to="1O" fromLane="5" toLane="5" contPos="0.00" via=":J0_9_3" tl="J0" linkIndex="12" dir="s" state="O"/>
    <connection from="3I" to="4O" fromLane="6" toLane="3" contPos="0.00" via=":J0_13_0" tl="J0" linkIndex="13" dir="l" state="o"/>
    <connection from="3O" to="3I" fromLane="2" toLane="6" via=":J3_0_0" dir="t" state="M"/>
    <connection from="4I" to="3O" fromLane="0" toLane="0" contPos="0.00" via=":J0_14_0" tl="J0" linkIndex="14" dir="r" state="O"/>
    <connection from="4I" to="2O" fromLane="1" toLane="1" contPos="0.00" via=":J0_15_0" tl="J0" linkIndex="15" dir="s" state="o"/>
    <connection from="4I" to="2O" fromLane="2" toLane="2" contPos="0.00" via=":J0_15_1" tl="J0" linkIndex="16" dir="s" state="o"/>
    <connection from="4I" to="1O" fromLane="3" toLane="6" contPos="0.00" via=":J0_17_0" tl="J0" linkIndex="17" dir="l" state="o"/>
    <connection from="4O" to="4I" fromLane="3" toLane="3" via=":J4_0_0" dir="t" state="M"/>

    <connection from=":J0_0" to="4O" fromLane="0" toLane="0" dir="r" state="M"/>
    <connection from=":J0_1" to="3O" fromLane="0" toLane="1" dir="s" state="M"/>
    <connection from=":J0_2" to="2O" fromLane="0" toLane="3" dir="l" state="M"/>
    <connection from=":J0_3" to="1O" fromLane="0" toLane="0" dir="r" state="M"/>
    <connection from=":J0_4" to="4O" fromLane="0" toLane="1" dir="s" state="M"/>
    <connection from=":J0_4" to="4O" fromLane="1" toLane="2" dir="s" state="M"/>
    <connection from=":J0_6" to="3O" fromLane="0" toLane="2" dir="l" state="M"/>
    <connection from=":J0_7" to="2O" fromLane="0" toLane="0" dir="r" state="M"/>
    <connection from=":J0_7" to="2O" fromLane="1" toLane="1" dir="r" state="M"/>
    <connection from=":J0_9" to="1O" fromLane="0" toLane="2" dir="s" state="M"/>
    <connection from=":J0_9" to="1O" fromLane="1" toLane="3" dir="s" state="M"/>
    <connection from=":J0_9" to="1O" fromLane="2" toLane="4" dir="s" state="M"/>
    <connection from=":J0_9" to="1O" fromLane="3" toLane="5" dir="s" state="M"/>
    <connection from=":J0_13" to="4O" fromLane="0" toLane="3" dir="l" state="M"/>
    <connection from=":J0_14" to="3O" fromLane="0" toLane="0" dir="r" state="M"/>
    <connection from=":J0_15" to="2O" fromLane="0" toLane="1" dir="s" state="M"/>
    <connection from=":J0_15" to="2O" fromLane="1" toLane="2" dir="s" state="M"/>
    <connection from=":J0_17" to="1O" fromLane="0" toLane="6" dir="l" state="M"/>
    <connection from=":J1_0" to="1I" fromLane="0" toLane="2" dir="t" state="M"/>
    <connection from=":J2_0" to="2I" fromLane="0" toLane="3" dir="t" state="M"/>
    <connection from=":J3_0" to="3I" fromLane="0" toLane="6" dir="t" state="M"/>
    <connection from=":J4_0" to="4I" fromLane="0" toLane="3" dir="t" state="M"/>

</net>
