<?xml version="1.0" encoding="UTF-8"?>

<!-- generated on 2022-04-07 14:05:53 by Eclipse SUMO netconvert Version 1.9.2
<configuration xmlns:xsi="http://www.w3.org/2001/XMLSchema-instance" xsi:noNamespaceSchemaLocation="http://sumo.dlr.de/xsd/netconvertConfiguration.xsd">

    <input>
        <node-files value="network/inputs/input.nod.xml"/>
        <edge-files value="network/inputs/input_5_5_4_4.edg.xml"/>
        <connection-files value="network/inputs/input_rslll_rrsll_rssl_rrsl.con.xml"/>
        <tllogic-files value="network/inputs/input_rslll_rrsll_rssl_rrsl.tll.xml"/>
    </input>

    <output>
        <output-file value="network/rslll_rrsll_rssl_rrsl.net.xml"/>
    </output>

    <report>
        <no-warnings value="true"/>
        <aggregate-warnings value="5"/>
        <log value="network/log/rslll_rrsll_rssl_rrsl.log.xml"/>
    </report>

</configuration>
-->

<net version="1.9" junctionCornerDetail="5" limitTurnSpeed="5.50" xmlns:xsi="http://www.w3.org/2001/XMLSchema-instance" xsi:noNamespaceSchemaLocation="http://sumo.dlr.de/xsd/net_file.xsd">

    <location netOffset="300.00,300.00" convBoundary="0.00,0.00,600.00,600.00" origBoundary="-300.00,-300.00,300.00,300.00" projParameter="!"/>

    <edge id=":J0_0" function="internal">
        <lane id=":J0_0_0" index="0" speed="6.51" length="9.03" shape="285.60,320.00 285.25,317.55 284.20,315.80 282.45,314.75 280.00,314.40"/>
    </edge>
    <edge id=":J0_1" function="internal">
        <lane id=":J0_1_0" index="0" speed="13.89" length="36.80" shape="288.80,320.00 288.80,283.20"/>
    </edge>
    <edge id=":J0_2" function="internal">
        <lane id=":J0_2_0" index="0" speed="13.54" length="42.61" shape="292.00,320.00 293.55,307.75 298.20,299.00 305.95,293.75 316.80,292.00"/>
        <lane id=":J0_2_1" index="1" speed="12.72" length="37.45" shape="295.20,320.00 296.55,309.15 300.60,301.40 307.35,296.75 316.80,295.20"/>
        <lane id=":J0_2_2" index="2" speed="11.84" length="32.30" shape="298.40,320.00 299.55,310.55 303.00,303.80 308.75,299.75 316.80,298.40"/>
    </edge>
    <edge id=":J0_5" function="internal">
        <lane id=":J0_5_0" index="0" speed="6.51" length="9.03" shape="316.80,314.40 314.35,314.75 312.60,315.80 311.55,317.55 311.20,320.00"/>
        <lane id=":J0_5_1" index="1" speed="8.00" length="14.19" shape="316.80,311.20 312.95,311.75 310.20,313.40 308.55,316.15 308.00,320.00"/>
    </edge>
    <edge id=":J0_7" function="internal">
        <lane id=":J0_7_0" index="0" speed="13.89" length="36.80" shape="316.80,308.00 280.00,308.00"/>
    </edge>
    <edge id=":J0_8" function="internal">
        <lane id=":J0_8_0" index="0" speed="12.28" length="34.84" shape="316.80,304.80 307.35,303.45 300.60,299.40 296.55,292.65 295.20,283.20"/>
        <lane id=":J0_8_1" index="1" speed="11.36" length="29.67" shape="316.80,301.60 308.75,300.45 303.00,297.00 299.55,291.25 298.40,283.20"/>
    </edge>
    <edge id=":J0_10" function="internal">
        <lane id=":J0_10_0" index="0" speed="6.51" length="9.03" shape="311.20,283.20 311.55,285.65 312.60,287.40 314.35,288.45 316.80,288.80"/>
    </edge>
    <edge id=":J0_11" function="internal">
        <lane id=":J0_11_0" index="0" speed="13.89" length="36.80" shape="308.00,283.20 308.00,320.00"/>
        <lane id=":J0_11_1" index="1" speed="13.89" length="36.80" shape="304.80,283.20 304.80,320.00"/>
    </edge>
    <edge id=":J0_13" function="internal">
        <lane id=":J0_13_0" index="0" speed="11.84" length="32.30" shape="301.60,283.20 300.25,291.25 296.20,297.00 289.45,300.45 280.00,301.60"/>
    </edge>
    <edge id=":J0_14" function="internal">
        <lane id=":J0_14_0" index="0" speed="6.51" length="9.03" shape="280.00,288.80 282.45,288.45 284.20,287.40 285.25,285.65 285.60,283.20"/>
        <lane id=":J0_14_1" index="1" speed="8.00" length="14.19" shape="280.00,292.00 283.85,291.45 286.60,289.80 288.25,287.05 288.80,283.20"/>
    </edge>
    <edge id=":J0_16" function="internal">
        <lane id=":J0_16_0" index="0" speed="13.89" length="36.80" shape="280.00,295.20 316.80,295.20"/>
    </edge>
    <edge id=":J0_17" function="internal">
        <lane id=":J0_17_0" index="0" speed="12.28" length="34.84" shape="280.00,298.40 289.45,299.75 296.20,303.80 300.25,310.55 301.60,320.00"/>
    </edge>
    <edge id=":J1_0" function="internal">
        <lane id=":J1_0_0" index="0" speed="3.65" length="4.67" shape="301.60,600.00 300.80,601.20 300.00,601.60 299.20,601.20 298.40,600.00"/>
    </edge>
    <edge id=":J2_0" function="internal">
        <lane id=":J2_0_0" index="0" speed="3.65" length="4.67" shape="600.00,298.40 601.20,299.20 601.60,300.00 601.20,300.80 600.00,301.60"/>
    </edge>
    <edge id=":J3_0" function="internal">
        <lane id=":J3_0_0" index="0" speed="3.65" length="4.67" shape="298.40,0.00 299.20,-1.20 300.00,-1.60 300.80,-1.20 301.60,0.00"/>
    </edge>
    <edge id=":J4_0" function="internal">
        <lane id=":J4_0_0" index="0" speed="3.65" length="4.67" shape="0.00,301.60 -1.20,300.80 -1.60,300.00 -1.20,299.20 0.00,298.40"/>
    </edge>

    <edge id="1I" from="J1" to="J0" priority="-1">
        <lane id="1I_0" index="0" speed="13.89" length="280.00" shape="285.60,600.00 285.60,320.00"/>
        <lane id="1I_1" index="1" speed="13.89" length="280.00" shape="288.80,600.00 288.80,320.00"/>
        <lane id="1I_2" index="2" speed="13.89" length="280.00" shape="292.00,600.00 292.00,320.00"/>
        <lane id="1I_3" index="3" speed="13.89" length="280.00" shape="295.20,600.00 295.20,320.00"/>
        <lane id="1I_4" index="4" speed="13.89" length="280.00" shape="298.40,600.00 298.40,320.00"/>
    </edge>
    <edge id="1O" from="J0" to="J1" priority="-1">
        <lane id="1O_0" index="0" speed="13.89" length="280.00" shape="311.20,320.00 311.20,600.00"/>
        <lane id="1O_1" index="1" speed="13.89" length="280.00" shape="308.00,320.00 308.00,600.00"/>
        <lane id="1O_2" index="2" speed="13.89" length="280.00" shape="304.80,320.00 304.80,600.00"/>
        <lane id="1O_3" index="3" speed="13.89" length="280.00" shape="301.60,320.00 301.60,600.00"/>
    </edge>
    <edge id="2I" from="J2" to="J0" priority="-1">
        <lane id="2I_0" index="0" speed="13.89" length="283.20" shape="600.00,314.40 316.80,314.40"/>
        <lane id="2I_1" index="1" speed="13.89" length="283.20" shape="600.00,311.20 316.80,311.20"/>
        <lane id="2I_2" index="2" speed="13.89" length="283.20" shape="600.00,308.00 316.80,308.00"/>
        <lane id="2I_3" index="3" speed="13.89" length="283.20" shape="600.00,304.80 316.80,304.80"/>
        <lane id="2I_4" index="4" speed="13.89" length="283.20" shape="600.00,301.60 316.80,301.60"/>
    </edge>
    <edge id="2O" from="J0" to="J2" priority="-1">
        <lane id="2O_0" index="0" speed="13.89" length="283.20" shape="316.80,288.80 600.00,288.80"/>
        <lane id="2O_1" index="1" speed="13.89" length="283.20" shape="316.80,292.00 600.00,292.00"/>
        <lane id="2O_2" index="2" speed="13.89" length="283.20" shape="316.80,295.20 600.00,295.20"/>
        <lane id="2O_3" index="3" speed="13.89" length="283.20" shape="316.80,298.40 600.00,298.40"/>
    </edge>
    <edge id="3I" from="J3" to="J0" priority="-1">
        <lane id="3I_0" index="0" speed="13.89" length="283.20" shape="311.20,0.00 311.20,283.20"/>
        <lane id="3I_1" index="1" speed="13.89" length="283.20" shape="308.00,0.00 308.00,283.20"/>
        <lane id="3I_2" index="2" speed="13.89" length="283.20" shape="304.80,0.00 304.80,283.20"/>
        <lane id="3I_3" index="3" speed="13.89" length="283.20" shape="301.60,0.00 301.60,283.20"/>
    </edge>
    <edge id="3O" from="J0" to="J3" priority="-1">
        <lane id="3O_0" index="0" speed="13.89" length="283.20" shape="285.60,283.20 285.60,0.00"/>
        <lane id="3O_1" index="1" speed="13.89" length="283.20" shape="288.80,283.20 288.80,0.00"/>
        <lane id="3O_2" index="2" speed="13.89" length="283.20" shape="292.00,283.20 292.00,0.00"/>
        <lane id="3O_3" index="3" speed="13.89" length="283.20" shape="295.20,283.20 295.20,0.00"/>
        <lane id="3O_4" index="4" speed="13.89" length="283.20" shape="298.40,283.20 298.40,0.00"/>
    </edge>
    <edge id="4I" from="J4" to="J0" priority="-1">
        <lane id="4I_0" index="0" speed="13.89" length="280.00" shape="0.00,288.80 280.00,288.80"/>
        <lane id="4I_1" index="1" speed="13.89" length="280.00" shape="0.00,292.00 280.00,292.00"/>
        <lane id="4I_2" index="2" speed="13.89" length="280.00" shape="0.00,295.20 280.00,295.20"/>
        <lane id="4I_3" index="3" speed="13.89" length="280.00" shape="0.00,298.40 280.00,298.40"/>
    </edge>
    <edge id="4O" from="J0" to="J4" priority="-1">
        <lane id="4O_0" index="0" speed="13.89" length="280.00" shape="280.00,314.40 0.00,314.40"/>
        <lane id="4O_1" index="1" speed="13.89" length="280.00" shape="280.00,311.20 0.00,311.20"/>
        <lane id="4O_2" index="2" speed="13.89" length="280.00" shape="280.00,308.00 0.00,308.00"/>
        <lane id="4O_3" index="3" speed="13.89" length="280.00" shape="280.00,304.80 0.00,304.80"/>
        <lane id="4O_4" index="4" speed="13.89" length="280.00" shape="280.00,301.60 0.00,301.60"/>
    </edge>

    <tlLogic id="J0" type="static" programID="0" offset="0">
        <phase duration="15" state="rrGGGGGrrrrrrGGGrr"/>
        <phase duration="3"  state="rrYYYYYrrrrrrYYYrr"/>
        <phase duration="15" state="GGrrrrrrrrGGGrrrrr"/>
        <phase duration="3"  state="GYrrrrrrrrGYYrrrrr"/>
        <phase duration="15" state="GrrrrrrrGGGrrrrrrG"/>
        <phase duration="3"  state="YrrrrrrrYYYrrrrrrY"/>
        <phase duration="15" state="rrrrrGGGrrrrrrGGGr"/>
        <phase duration="3"  state="rrrrrGGYrrrrrrGGYr"/>
    </tlLogic>

    <junction id="J0" type="traffic_light" x="300.00" y="300.00" incLanes="1I_0 1I_1 1I_2 1I_3 1I_4 2I_0 2I_1 2I_2 2I_3 2I_4 3I_0 3I_1 3I_2 3I_3 4I_0 4I_1 4I_2 4I_3" intLanes=":J0_0_0 :J0_1_0 :J0_2_0 :J0_2_1 :J0_2_2 :J0_5_0 :J0_5_1 :J0_7_0 :J0_8_0 :J0_8_1 :J0_10_0 :J0_11_0 :J0_11_1 :J0_13_0 :J0_14_0 :J0_14_1 :J0_16_0 :J0_17_0" shape="284.00,320.00 312.80,320.00 313.24,317.78 313.80,317.00 314.58,316.44 315.58,316.11 316.80,316.00 316.80,287.20 314.58,286.76 313.80,286.20 313.24,285.42 312.91,284.42 312.80,283.20 284.00,283.20 283.56,285.42 283.00,286.20 282.22,286.76 281.22,287.09 280.00,287.20 280.00,316.00 282.22,316.44 283.00,317.00 283.56,317.78 283.89,318.78">
        <request index="0"  response="000000000000000000" foes="000000000000000000" cont="0"/>
        <request index="1"  response="000000000000000000" foes="111110000010000000" cont="0"/>
        <request index="2"  response="000001100000000000" foes="110001101110000000" cont="0"/>
        <request index="3"  response="000001100000000000" foes="110001101110000000" cont="0"/>
        <request index="4"  response="000001100000000000" foes="110001101110000000" cont="0"/>
        <request index="5"  response="000001100000000000" foes="000001100000000000" cont="0"/>
        <request index="6"  response="000001100000000000" foes="000001100000000000" cont="0"/>
        <request index="7"  response="000001100000011110" foes="100001100000011110" cont="0"/>
        <request index="8"  response="010011100000011100" foes="010011100000011100" cont="0"/>
        <request index="9"  response="010011100000011100" foes="010011100000011100" cont="0"/>
        <request index="10" response="000000000000000000" foes="000000000000000000" cont="0"/>
        <request index="11" response="000000000000000000" foes="010000001111111100" cont="0"/>
        <request index="12" response="000000000000000000" foes="010000001111111100" cont="0"/>
        <request index="13" response="000000000000000010" foes="110000001100000010" cont="0"/>
        <request index="14" response="000000000000000010" foes="000000000000000010" cont="0"/>
        <request index="15" response="000000000000000010" foes="000000000000000010" cont="0"/>
        <request index="16" response="000011100000011110" foes="000011101100011110" cont="0"/>
        <request index="17" response="000010000010011110" foes="000010000010011110" cont="0"/>
    </junction>
    <junction id="J1" type="priority" x="300.00" y="600.00" incLanes="1O_0 1O_1 1O_2 1O_3" intLanes=":J1_0_0" shape="300.00,600.00 312.80,600.00 300.00,600.00">
        <request index="0" response="0" foes="0" cont="0"/>
    </junction>
    <junction id="J2" type="priority" x="600.00" y="300.00" incLanes="2O_0 2O_1 2O_2 2O_3" intLanes=":J2_0_0" shape="600.00,300.00 600.00,287.20 600.00,300.00">
        <request index="0" response="0" foes="0" cont="0"/>
    </junction>
    <junction id="J3" type="priority" x="300.00" y="0.00" incLanes="3O_0 3O_1 3O_2 3O_3 3O_4" intLanes=":J3_0_0" shape="300.00,0.00 284.00,0.00 300.00,0.00">
        <request index="0" response="0" foes="0" cont="0"/>
    </junction>
    <junction id="J4" type="priority" x="0.00" y="300.00" incLanes="4O_0 4O_1 4O_2 4O_3 4O_4" intLanes=":J4_0_0" shape="0.00,300.00 0.00,316.00 0.00,300.00">
        <request index="0" response="0" foes="0" cont="0"/>
    </junction>

    <connection from="1I" to="4O" fromLane="0" toLane="0" contPos="0.00" via=":J0_0_0" tl="J0" linkIndex="0" dir="r" state="O"/>
    <connection from="1I" to="3O" fromLane="1" toLane="1" contPos="0.00" via=":J0_1_0" tl="J0" linkIndex="1" dir="s" state="O"/>
    <connection from="1I" to="2O" fromLane="2" toLane="1" contPos="0.00" via=":J0_2_0" tl="J0" linkIndex="2" dir="l" state="o"/>
    <connection from="1I" to="2O" fromLane="3" toLane="2" contPos="0.00" via=":J0_2_1" tl="J0" linkIndex="3" dir="l" state="o"/>
    <connection from="1I" to="2O" fromLane="4" toLane="3" contPos="0.00" via=":J0_2_2" tl="J0" linkIndex="4" dir="l" state="o"/>
    <connection from="1O" to="1I" fromLane="3" toLane="4" via=":J1_0_0" dir="t" state="M"/>
    <connection from="2I" to="1O" fromLane="0" toLane="0" contPos="0.00" via=":J0_5_0" tl="J0" linkIndex="5" dir="r" state="o"/>
    <connection from="2I" to="1O" fromLane="1" toLane="1" contPos="0.00" via=":J0_5_1" tl="J0" linkIndex="6" dir="r" state="o"/>
    <connection from="2I" to="4O" fromLane="2" toLane="2" contPos="0.00" via=":J0_7_0" tl="J0" linkIndex="7" dir="s" state="o"/>
    <connection from="2I" to="3O" fromLane="3" toLane="3" contPos="0.00" via=":J0_8_0" tl="J0" linkIndex="8" dir="l" state="o"/>
    <connection from="2I" to="3O" fromLane="4" toLane="4" contPos="0.00" via=":J0_8_1" tl="J0" linkIndex="9" dir="l" state="o"/>
    <connection from="2O" to="2I" fromLane="3" toLane="4" via=":J2_0_0" dir="t" state="M"/>
    <connection from="3I" to="2O" fromLane="0" toLane="0" contPos="0.00" via=":J0_10_0" tl="J0" linkIndex="10" dir="r" state="O"/>
    <connection from="3I" to="1O" fromLane="1" toLane="1" contPos="0.00" via=":J0_11_0" tl="J0" linkIndex="11" dir="s" state="O"/>
    <connection from="3I" to="1O" fromLane="2" toLane="2" contPos="0.00" via=":J0_11_1" tl="J0" linkIndex="12" dir="s" state="O"/>
    <connection from="3I" to="4O" fromLane="3" toLane="4" contPos="0.00" via=":J0_13_0" tl="J0" linkIndex="13" dir="l" state="o"/>
    <connection from="3O" to="3I" fromLane="4" toLane="3" via=":J3_0_0" dir="t" state="M"/>
    <connection from="4I" to="3O" fromLane="0" toLane="0" contPos="0.00" via=":J0_14_0" tl="J0" linkIndex="14" dir="r" state="o"/>
    <connection from="4I" to="3O" fromLane="1" toLane="1" contPos="0.00" via=":J0_14_1" tl="J0" linkIndex="15" dir="r" state="o"/>
    <connection from="4I" to="2O" fromLane="2" toLane="2" contPos="0.00" via=":J0_16_0" tl="J0" linkIndex="16" dir="s" state="o"/>
    <connection from="4I" to="1O" fromLane="3" toLane="3" contPos="0.00" via=":J0_17_0" tl="J0" linkIndex="17" dir="l" state="o"/>
    <connection from="4O" to="4I" fromLane="4" toLane="3" via=":J4_0_0" dir="t" state="M"/>

    <connection from=":J0_0" to="4O" fromLane="0" toLane="0" dir="r" state="M"/>
    <connection from=":J0_1" to="3O" fromLane="0" toLane="1" dir="s" state="M"/>
    <connection from=":J0_2" to="2O" fromLane="0" toLane="1" dir="l" state="M"/>
    <connection from=":J0_2" to="2O" fromLane="1" toLane="2" dir="l" state="M"/>
    <connection from=":J0_2" to="2O" fromLane="2" toLane="3" dir="l" state="M"/>
    <connection from=":J0_5" to="1O" fromLane="0" toLane="0" dir="r" state="M"/>
    <connection from=":J0_5" to="1O" fromLane="1" toLane="1" dir="r" state="M"/>
    <connection from=":J0_7" to="4O" fromLane="0" toLane="2" dir="s" state="M"/>
    <connection from=":J0_8" to="3O" fromLane="0" toLane="3" dir="l" state="M"/>
    <connection from=":J0_8" to="3O" fromLane="1" toLane="4" dir="l" state="M"/>
    <connection from=":J0_10" to="2O" fromLane="0" toLane="0" dir="r" state="M"/>
    <connection from=":J0_11" to="1O" fromLane="0" toLane="1" dir="s" state="M"/>
    <connection from=":J0_11" to="1O" fromLane="1" toLane="2" dir="s" state="M"/>
    <connection from=":J0_13" to="4O" fromLane="0" toLane="4" dir="l" state="M"/>
    <connection from=":J0_14" to="3O" fromLane="0" toLane="0" dir="r" state="M"/>
    <connection from=":J0_14" to="3O" fromLane="1" toLane="1" dir="r" state="M"/>
    <connection from=":J0_16" to="2O" fromLane="0" toLane="2" dir="s" state="M"/>
    <connection from=":J0_17" to="1O" fromLane="0" toLane="3" dir="l" state="M"/>
    <connection from=":J1_0" to="1I" fromLane="0" toLane="4" dir="t" state="M"/>
    <connection from=":J2_0" to="2I" fromLane="0" toLane="4" dir="t" state="M"/>
    <connection from=":J3_0" to="3I" fromLane="0" toLane="3" dir="t" state="M"/>
    <connection from=":J4_0" to="4I" fromLane="0" toLane="3" dir="t" state="M"/>

</net>
