<?xml version="1.0" encoding="UTF-8"?>

<!-- generated on 2022-04-07 14:06:05 by Eclipse SUMO netconvert Version 1.9.2
<configuration xmlns:xsi="http://www.w3.org/2001/XMLSchema-instance" xsi:noNamespaceSchemaLocation="http://sumo.dlr.de/xsd/netconvertConfiguration.xsd">

    <input>
        <node-files value="network/inputs/input.nod.xml"/>
        <edge-files value="network/inputs/input_5_7_7_4.edg.xml"/>
        <connection-files value="network/inputs/input_rslll_rrsslll_rrsssll_rssl.con.xml"/>
        <tllogic-files value="network/inputs/input_rslll_rrsslll_rrsssll_rssl.tll.xml"/>
    </input>

    <output>
        <output-file value="network/rslll_rrsslll_rrsssll_rssl.net.xml"/>
    </output>

    <report>
        <no-warnings value="true"/>
        <aggregate-warnings value="5"/>
        <log value="network/log/rslll_rrsslll_rrsssll_rssl.log.xml"/>
    </report>

</configuration>
-->

<net version="1.9" junctionCornerDetail="5" limitTurnSpeed="5.50" xmlns:xsi="http://www.w3.org/2001/XMLSchema-instance" xsi:noNamespaceSchemaLocation="http://sumo.dlr.de/xsd/net_file.xsd">

    <location netOffset="300.00,300.00" convBoundary="0.00,0.00,600.00,600.00" origBoundary="-300.00,-300.00,300.00,300.00" projParameter="!"/>

    <edge id=":J0_0" function="internal">
        <lane id=":J0_0_0" index="0" speed="6.51" length="9.03" shape="285.60,326.40 285.25,323.95 284.20,322.20 282.45,321.15 280.00,320.80"/>
    </edge>
    <edge id=":J0_1" function="internal">
        <lane id=":J0_1_0" index="0" speed="13.89" length="43.20" shape="288.80,326.40 288.80,283.20"/>
    </edge>
    <edge id=":J0_2" function="internal">
        <lane id=":J0_2_0" index="0" speed="13.89" length="55.48" shape="292.00,326.40 294.15,311.35 300.60,300.60 311.35,294.15 326.40,292.00"/>
        <lane id=":J0_2_1" index="1" speed="13.89" length="50.32" shape="295.20,326.40 297.15,312.75 303.00,303.00 312.75,297.15 326.40,295.20"/>
        <lane id=":J0_2_2" index="2" speed="13.89" length="45.16" shape="298.40,326.40 300.15,314.15 305.40,305.40 314.15,300.15 326.40,298.40"/>
    </edge>
    <edge id=":J0_5" function="internal">
        <lane id=":J0_5_0" index="0" speed="6.51" length="9.03" shape="326.40,320.80 323.95,321.15 322.20,322.20 321.15,323.95 320.80,326.40"/>
        <lane id=":J0_5_1" index="1" speed="8.00" length="14.19" shape="326.40,317.60 322.55,318.15 319.80,319.80 318.15,322.55 317.60,326.40"/>
    </edge>
    <edge id=":J0_7" function="internal">
        <lane id=":J0_7_0" index="0" speed="13.89" length="46.40" shape="326.40,314.40 280.00,314.40"/>
        <lane id=":J0_7_1" index="1" speed="13.89" length="46.40" shape="326.40,311.20 280.00,311.20"/>
    </edge>
    <edge id=":J0_9" function="internal">
        <lane id=":J0_9_0" index="0" speed="13.89" length="47.99" shape="326.40,308.00 311.35,306.45 300.60,301.80 294.15,294.05 292.00,283.20"/>
        <lane id=":J0_9_1" index="1" speed="13.58" length="42.86" shape="326.40,304.80 312.75,303.45 303.00,299.40 297.15,292.65 295.20,283.20"/>
        <lane id=":J0_9_2" index="2" speed="12.76" length="37.73" shape="326.40,301.60 314.15,300.45 305.40,297.00 300.15,291.25 298.40,283.20"/>
    </edge>
    <edge id=":J0_12" function="internal">
        <lane id=":J0_12_0" index="0" speed="6.51" length="9.03" shape="320.80,283.20 321.15,285.65 322.20,287.40 323.95,288.45 326.40,288.80"/>
        <lane id=":J0_12_1" index="1" speed="8.00" length="14.19" shape="317.60,283.20 318.15,287.05 319.80,289.80 322.55,291.45 326.40,292.00"/>
    </edge>
    <edge id=":J0_14" function="internal">
        <lane id=":J0_14_0" index="0" speed="13.89" length="43.20" shape="314.40,283.20 314.40,326.40"/>
        <lane id=":J0_14_1" index="1" speed="13.89" length="43.20" shape="311.20,283.20 311.20,326.40"/>
        <lane id=":J0_14_2" index="2" speed="13.89" length="43.20" shape="308.00,283.20 308.00,326.40"/>
    </edge>
    <edge id=":J0_17" function="internal">
        <lane id=":J0_17_0" index="0" speed="12.72" length="37.45" shape="304.80,283.20 303.25,292.65 298.60,299.40 290.85,303.45 280.00,304.80"/>
        <lane id=":J0_17_1" index="1" speed="11.84" length="32.30" shape="301.60,283.20 300.25,291.25 296.20,297.00 289.45,300.45 280.00,301.60"/>
    </edge>
    <edge id=":J0_19" function="internal">
        <lane id=":J0_19_0" index="0" speed="6.51" length="9.03" shape="280.00,288.80 282.45,288.45 284.20,287.40 285.25,285.65 285.60,283.20"/>
    </edge>
    <edge id=":J0_20" function="internal">
        <lane id=":J0_20_0" index="0" speed="13.89" length="46.40" shape="280.00,292.00 326.40,292.00"/>
        <lane id=":J0_20_1" index="1" speed="13.89" length="46.40" shape="280.00,295.20 326.40,295.20"/>
    </edge>
    <edge id=":J0_22" function="internal">
        <lane id=":J0_22_0" index="0" speed="13.15" length="40.13" shape="280.00,298.40 289.45,300.15 296.20,305.40 300.25,314.15 301.60,326.40"/>
    </edge>
    <edge id=":J1_0" function="internal">
        <lane id=":J1_0_0" index="0" speed="3.65" length="4.67" shape="301.60,600.00 300.80,601.20 300.00,601.60 299.20,601.20 298.40,600.00"/>
    </edge>
    <edge id=":J2_0" function="internal">
        <lane id=":J2_0_0" index="0" speed="3.65" length="4.67" shape="600.00,298.40 601.20,299.20 601.60,300.00 601.20,300.80 600.00,301.60"/>
    </edge>
    <edge id=":J3_0" function="internal">
        <lane id=":J3_0_0" index="0" speed="3.65" length="4.67" shape="298.40,0.00 299.20,-1.20 300.00,-1.60 300.80,-1.20 301.60,0.00"/>
    </edge>
    <edge id=":J4_0" function="internal">
        <lane id=":J4_0_0" index="0" speed="3.65" length="4.67" shape="0.00,301.60 -1.20,300.80 -1.60,300.00 -1.20,299.20 0.00,298.40"/>
    </edge>

    <edge id="1I" from="J1" to="J0" priority="-1">
        <lane id="1I_0" index="0" speed="13.89" length="273.60" shape="285.60,600.00 285.60,326.40"/>
        <lane id="1I_1" index="1" speed="13.89" length="273.60" shape="288.80,600.00 288.80,326.40"/>
        <lane id="1I_2" index="2" speed="13.89" length="273.60" shape="292.00,600.00 292.00,326.40"/>
        <lane id="1I_3" index="3" speed="13.89" length="273.60" shape="295.20,600.00 295.20,326.40"/>
        <lane id="1I_4" index="4" speed="13.89" length="273.60" shape="298.40,600.00 298.40,326.40"/>
    </edge>
    <edge id="1O" from="J0" to="J1" priority="-1">
        <lane id="1O_0" index="0" speed="13.89" length="273.60" shape="320.80,326.40 320.80,600.00"/>
        <lane id="1O_1" index="1" speed="13.89" length="273.60" shape="317.60,326.40 317.60,600.00"/>
        <lane id="1O_2" index="2" speed="13.89" length="273.60" shape="314.40,326.40 314.40,600.00"/>
        <lane id="1O_3" index="3" speed="13.89" length="273.60" shape="311.20,326.40 311.20,600.00"/>
        <lane id="1O_4" index="4" speed="13.89" length="273.60" shape="308.00,326.40 308.00,600.00"/>
        <lane id="1O_5" index="5" speed="13.89" length="273.60" shape="304.80,326.40 304.80,600.00"/>
        <lane id="1O_6" index="6" speed="13.89" length="273.60" shape="301.60,326.40 301.60,600.00"/>
    </edge>
    <edge id="2I" from="J2" to="J0" priority="-1">
        <lane id="2I_0" index="0" speed="13.89" length="273.60" shape="600.00,320.80 326.40,320.80"/>
        <lane id="2I_1" index="1" speed="13.89" length="273.60" shape="600.00,317.60 326.40,317.60"/>
        <lane id="2I_2" index="2" speed="13.89" length="273.60" shape="600.00,314.40 326.40,314.40"/>
        <lane id="2I_3" index="3" speed="13.89" length="273.60" shape="600.00,311.20 326.40,311.20"/>
        <lane id="2I_4" index="4" speed="13.89" length="273.60" shape="600.00,308.00 326.40,308.00"/>
        <lane id="2I_5" index="5" speed="13.89" length="273.60" shape="600.00,304.80 326.40,304.80"/>
        <lane id="2I_6" index="6" speed="13.89" length="273.60" shape="600.00,301.60 326.40,301.60"/>
    </edge>
    <edge id="2O" from="J0" to="J2" priority="-1">
        <lane id="2O_0" index="0" speed="13.89" length="273.60" shape="326.40,288.80 600.00,288.80"/>
        <lane id="2O_1" index="1" speed="13.89" length="273.60" shape="326.40,292.00 600.00,292.00"/>
        <lane id="2O_2" index="2" speed="13.89" length="273.60" shape="326.40,295.20 600.00,295.20"/>
        <lane id="2O_3" index="3" speed="13.89" length="273.60" shape="326.40,298.40 600.00,298.40"/>
    </edge>
    <edge id="3I" from="J3" to="J0" priority="-1">
        <lane id="3I_0" index="0" speed="13.89" length="283.20" shape="320.80,0.00 320.80,283.20"/>
        <lane id="3I_1" index="1" speed="13.89" length="283.20" shape="317.60,0.00 317.60,283.20"/>
        <lane id="3I_2" index="2" speed="13.89" length="283.20" shape="314.40,0.00 314.40,283.20"/>
        <lane id="3I_3" index="3" speed="13.89" length="283.20" shape="311.20,0.00 311.20,283.20"/>
        <lane id="3I_4" index="4" speed="13.89" length="283.20" shape="308.00,0.00 308.00,283.20"/>
        <lane id="3I_5" index="5" speed="13.89" length="283.20" shape="304.80,0.00 304.80,283.20"/>
        <lane id="3I_6" index="6" speed="13.89" length="283.20" shape="301.60,0.00 301.60,283.20"/>
    </edge>
    <edge id="3O" from="J0" to="J3" priority="-1">
        <lane id="3O_0" index="0" speed="13.89" length="283.20" shape="285.60,283.20 285.60,0.00"/>
        <lane id="3O_1" index="1" speed="13.89" length="283.20" shape="288.80,283.20 288.80,0.00"/>
        <lane id="3O_2" index="2" speed="13.89" length="283.20" shape="292.00,283.20 292.00,0.00"/>
        <lane id="3O_3" index="3" speed="13.89" length="283.20" shape="295.20,283.20 295.20,0.00"/>
        <lane id="3O_4" index="4" speed="13.89" length="283.20" shape="298.40,283.20 298.40,0.00"/>
    </edge>
    <edge id="4I" from="J4" to="J0" priority="-1">
        <lane id="4I_0" index="0" speed="13.89" length="280.00" shape="0.00,288.80 280.00,288.80"/>
        <lane id="4I_1" index="1" speed="13.89" length="280.00" shape="0.00,292.00 280.00,292.00"/>
        <lane id="4I_2" index="2" speed="13.89" length="280.00" shape="0.00,295.20 280.00,295.20"/>
        <lane id="4I_3" index="3" speed="13.89" length="280.00" shape="0.00,298.40 280.00,298.40"/>
    </edge>
    <edge id="4O" from="J0" to="J4" priority="-1">
        <lane id="4O_0" index="0" speed="13.89" length="280.00" shape="280.00,320.80 0.00,320.80"/>
        <lane id="4O_1" index="1" speed="13.89" length="280.00" shape="280.00,317.60 0.00,317.60"/>
        <lane id="4O_2" index="2" speed="13.89" length="280.00" shape="280.00,314.40 0.00,314.40"/>
        <lane id="4O_3" index="3" speed="13.89" length="280.00" shape="280.00,311.20 0.00,311.20"/>
        <lane id="4O_4" index="4" speed="13.89" length="280.00" shape="280.00,308.00 0.00,308.00"/>
        <lane id="4O_5" index="5" speed="13.89" length="280.00" shape="280.00,304.80 0.00,304.80"/>
        <lane id="4O_6" index="6" speed="13.89" length="280.00" shape="280.00,301.60 0.00,301.60"/>
    </edge>

    <tlLogic id="J0" type="static" programID="0" offset="0">
        <phase duration="15" state="rrGGGGGrrrrrrrrrrGGGrrr"/>
        <phase duration="3"  state="rrYYYYYrrrrrrrrrrYYYrrr"/>
        <phase duration="15" state="GGrrrrrrrrrrGGGGGrrrrrr"/>
        <phase duration="3"  state="GYrrrrrrrrrrGGYYYrrrrrr"/>
        <phase duration="15" state="GrrrrrrrrGGGGGrrrrrrrrG"/>
        <phase duration="3"  state="YrrrrrrrrYYYYYrrrrrrrrY"/>
        <phase duration="15" state="rrrrrGGGGrrrrrrrrrrGGGr"/>
        <phase duration="3"  state="rrrrrGGYYrrrrrrrrrrGYYr"/>
    </tlLogic>

    <junction id="J0" type="traffic_light" x="300.00" y="300.00" incLanes="1I_0 1I_1 1I_2 1I_3 1I_4 2I_0 2I_1 2I_2 2I_3 2I_4 2I_5 2I_6 3I_0 3I_1 3I_2 3I_3 3I_4 3I_5 3I_6 4I_0 4I_1 4I_2 4I_3" intLanes=":J0_0_0 :J0_1_0 :J0_2_0 :J0_2_1 :J0_2_2 :J0_5_0 :J0_5_1 :J0_7_0 :J0_7_1 :J0_9_0 :J0_9_1 :J0_9_2 :J0_12_0 :J0_12_1 :J0_14_0 :J0_14_1 :J0_14_2 :J0_17_0 :J0_17_1 :J0_19_0 :J0_20_0 :J0_20_1 :J0_22_0" shape="284.00,326.40 322.40,326.40 322.84,324.18 323.40,323.40 324.18,322.84 325.18,322.51 326.40,322.40 326.40,287.20 324.18,286.76 323.40,286.20 322.84,285.42 322.51,284.42 322.40,283.20 284.00,283.20 283.56,285.42 283.00,286.20 282.22,286.76 281.22,287.09 280.00,287.20 280.00,322.40 282.22,322.84 283.00,323.40 283.56,324.18 283.89,325.18">
        <request index="0"  response="00000000000000000000000" foes="00000000000000000000000" cont="0"/>
        <request index="1"  response="00000000000000000000000" foes="11101100000000110000000" cont="0"/>
        <request index="2"  response="00000011111000000000000" foes="11100011111111110000000" cont="0"/>
        <request index="3"  response="00000011111000000000000" foes="11100011111111110000000" cont="0"/>
        <request index="4"  response="00000011111000000000000" foes="11100011111111110000000" cont="0"/>
        <request index="5"  response="00000000000000000000000" foes="00000000000000000000000" cont="0"/>
        <request index="6"  response="00000000000000000000000" foes="00000000000000000000000" cont="0"/>
        <request index="7"  response="00000011100000000011110" foes="10000011100000000011110" cont="0"/>
        <request index="8"  response="00000011100000000011110" foes="10000011100000000011110" cont="0"/>
        <request index="9"  response="01101111100000000011100" foes="01101111100000000011100" cont="0"/>
        <request index="10" response="01101111100000000011100" foes="01101111100000000011100" cont="0"/>
        <request index="11" response="01101111100000000011100" foes="01101111100000000011100" cont="0"/>
        <request index="12" response="00000000000000000000000" foes="01100000000000000011100" cont="0"/>
        <request index="13" response="00000000000000000000000" foes="01100000000000000011100" cont="0"/>
        <request index="14" response="00000000000000000000000" foes="01100000000111110011100" cont="0"/>
        <request index="15" response="00000000000000000000000" foes="01100000000111110011100" cont="0"/>
        <request index="16" response="00000000000000000000000" foes="01100000000111110011100" cont="0"/>
        <request index="17" response="00000000000000000000010" foes="11100000000111000000010" cont="0"/>
        <request index="18" response="00000000000000000000010" foes="11100000000111000000010" cont="0"/>
        <request index="19" response="00000000000000000000000" foes="00000000000000000000000" cont="0"/>
        <request index="20" response="00001111111000000011110" foes="00001111111111000011110" cont="0"/>
        <request index="21" response="00001111111000000011110" foes="00001111111111000011110" cont="0"/>
        <request index="22" response="00001100000000110011110" foes="00001100000000110011110" cont="0"/>
    </junction>
    <junction id="J1" type="priority" x="300.00" y="600.00" incLanes="1O_0 1O_1 1O_2 1O_3 1O_4 1O_5 1O_6" intLanes=":J1_0_0" shape="300.00,600.00 322.40,600.00 300.00,600.00">
        <request index="0" response="0" foes="0" cont="0"/>
    </junction>
    <junction id="J2" type="priority" x="600.00" y="300.00" incLanes="2O_0 2O_1 2O_2 2O_3" intLanes=":J2_0_0" shape="600.00,300.00 600.00,287.20 600.00,300.00">
        <request index="0" response="0" foes="0" cont="0"/>
    </junction>
    <junction id="J3" type="priority" x="300.00" y="0.00" incLanes="3O_0 3O_1 3O_2 3O_3 3O_4" intLanes=":J3_0_0" shape="300.00,0.00 284.00,0.00 300.00,0.00">
        <request index="0" response="0" foes="0" cont="0"/>
    </junction>
    <junction id="J4" type="priority" x="0.00" y="300.00" incLanes="4O_0 4O_1 4O_2 4O_3 4O_4 4O_5 4O_6" intLanes=":J4_0_0" shape="0.00,300.00 0.00,322.40 0.00,300.00">
        <request index="0" response="0" foes="0" cont="0"/>
    </junction>

    <connection from="1I" to="4O" fromLane="0" toLane="0" contPos="0.00" via=":J0_0_0" tl="J0" linkIndex="0" dir="r" state="O"/>
    <connection from="1I" to="3O" fromLane="1" toLane="1" contPos="0.00" via=":J0_1_0" tl="J0" linkIndex="1" dir="s" state="O"/>
    <connection from="1I" to="2O" fromLane="2" toLane="1" contPos="0.00" via=":J0_2_0" tl="J0" linkIndex="2" dir="l" state="o"/>
    <connection from="1I" to="2O" fromLane="3" toLane="2" contPos="0.00" via=":J0_2_1" tl="J0" linkIndex="3" dir="l" state="o"/>
    <connection from="1I" to="2O" fromLane="4" toLane="3" contPos="0.00" via=":J0_2_2" tl="J0" linkIndex="4" dir="l" state="o"/>
    <connection from="1O" to="1I" fromLane="6" toLane="4" via=":J1_0_0" dir="t" state="M"/>
    <connection from="2I" to="1O" fromLane="0" toLane="0" contPos="0.00" via=":J0_5_0" tl="J0" linkIndex="5" dir="r" state="O"/>
    <connection from="2I" to="1O" fromLane="1" toLane="1" contPos="0.00" via=":J0_5_1" tl="J0" linkIndex="6" dir="r" state="O"/>
    <connection from="2I" to="4O" fromLane="2" toLane="2" contPos="0.00" via=":J0_7_0" tl="J0" linkIndex="7" dir="s" state="o"/>
    <connection from="2I" to="4O" fromLane="3" toLane="3" contPos="0.00" via=":J0_7_1" tl="J0" linkIndex="8" dir="s" state="o"/>
    <connection from="2I" to="3O" fromLane="4" toLane="2" contPos="0.00" via=":J0_9_0" tl="J0" linkIndex="9" dir="l" state="o"/>
    <connection from="2I" to="3O" fromLane="5" toLane="3" contPos="0.00" via=":J0_9_1" tl="J0" linkIndex="10" dir="l" state="o"/>
    <connection from="2I" to="3O" fromLane="6" toLane="4" contPos="0.00" via=":J0_9_2" tl="J0" linkIndex="11" dir="l" state="o"/>
    <connection from="2O" to="2I" fromLane="3" toLane="6" via=":J2_0_0" dir="t" state="M"/>
    <connection from="3I" to="2O" fromLane="0" toLane="0" contPos="0.00" via=":J0_12_0" tl="J0" linkIndex="12" dir="r" state="O"/>
    <connection from="3I" to="2O" fromLane="1" toLane="1" contPos="0.00" via=":J0_12_1" tl="J0" linkIndex="13" dir="r" state="O"/>
    <connection from="3I" to="1O" fromLane="2" toLane="2" contPos="0.00" via=":J0_14_0" tl="J0" linkIndex="14" dir="s" state="O"/>
    <connection from="3I" to="1O" fromLane="3" toLane="3" contPos="0.00" via=":J0_14_1" tl="J0" linkIndex="15" dir="s" state="O"/>
    <connection from="3I" to="1O" fromLane="4" toLane="4" contPos="0.00" via=":J0_14_2" tl="J0" linkIndex="16" dir="s" state="O"/>
    <connection from="3I" to="4O" fromLane="5" toLane="5" contPos="0.00" via=":J0_17_0" tl="J0" linkIndex="17" dir="l" state="o"/>
    <connection from="3I" to="4O" fromLane="6" toLane="6" contPos="0.00" via=":J0_17_1" tl="J0" linkIndex="18" dir="l" state="o"/>
    <connection from="3O" to="3I" fromLane="4" toLane="6" via=":J3_0_0" dir="t" state="M"/>
    <connection from="4I" to="3O" fromLane="0" toLane="0" contPos="0.00" via=":J0_19_0" tl="J0" linkIndex="19" dir="r" state="O"/>
    <connection from="4I" to="2O" fromLane="1" toLane="1" contPos="0.00" via=":J0_20_0" tl="J0" linkIndex="20" dir="s" state="o"/>
    <connection from="4I" to="2O" fromLane="2" toLane="2" contPos="0.00" via=":J0_20_1" tl="J0" linkIndex="21" dir="s" state="o"/>
    <connection from="4I" to="1O" fromLane="3" toLane="6" contPos="0.00" via=":J0_22_0" tl="J0" linkIndex="22" dir="l" state="o"/>
    <connection from="4O" to="4I" fromLane="6" toLane="3" via=":J4_0_0" dir="t" state="M"/>

    <connection from=":J0_0" to="4O" fromLane="0" toLane="0" dir="r" state="M"/>
    <connection from=":J0_1" to="3O" fromLane="0" toLane="1" dir="s" state="M"/>
    <connection from=":J0_2" to="2O" fromLane="0" toLane="1" dir="l" state="M"/>
    <connection from=":J0_2" to="2O" fromLane="1" toLane="2" dir="l" state="M"/>
    <connection from=":J0_2" to="2O" fromLane="2" toLane="3" dir="l" state="M"/>
    <connection from=":J0_5" to="1O" fromLane="0" toLane="0" dir="r" state="M"/>
    <connection from=":J0_5" to="1O" fromLane="1" toLane="1" dir="r" state="M"/>
    <connection from=":J0_7" to="4O" fromLane="0" toLane="2" dir="s" state="M"/>
    <connection from=":J0_7" to="4O" fromLane="1" toLane="3" dir="s" state="M"/>
    <connection from=":J0_9" to="3O" fromLane="0" toLane="2" dir="l" state="M"/>
    <connection from=":J0_9" to="3O" fromLane="1" toLane="3" dir="l" state="M"/>
    <connection from=":J0_9" to="3O" fromLane="2" toLane="4" dir="l" state="M"/>
    <connection from=":J0_12" to="2O" fromLane="0" toLane="0" dir="r" state="M"/>
    <connection from=":J0_12" to="2O" fromLane="1" toLane="1" dir="r" state="M"/>
    <connection from=":J0_14" to="1O" fromLane="0" toLane="2" dir="s" state="M"/>
    <connection from=":J0_14" to="1O" fromLane="1" toLane="3" dir="s" state="M"/>
    <connection from=":J0_14" to="1O" fromLane="2" toLane="4" dir="s" state="M"/>
    <connection from=":J0_17" to="4O" fromLane="0" toLane="5" dir="l" state="M"/>
    <connection from=":J0_17" to="4O" fromLane="1" toLane="6" dir="l" state="M"/>
    <connection from=":J0_19" to="3O" fromLane="0" toLane="0" dir="r" state="M"/>
    <connection from=":J0_20" to="2O" fromLane="0" toLane="1" dir="s" state="M"/>
    <connection from=":J0_20" to="2O" fromLane="1" toLane="2" dir="s" state="M"/>
    <connection from=":J0_22" to="1O" fromLane="0" toLane="6" dir="l" state="M"/>
    <connection from=":J1_0" to="1I" fromLane="0" toLane="4" dir="t" state="M"/>
    <connection from=":J2_0" to="2I" fromLane="0" toLane="6" dir="t" state="M"/>
    <connection from=":J3_0" to="3I" fromLane="0" toLane="6" dir="t" state="M"/>
    <connection from=":J4_0" to="4I" fromLane="0" toLane="3" dir="t" state="M"/>

</net>
