<?xml version="1.0" encoding="UTF-8"?>

<!-- generated on 2022-04-07 14:05:20 by Eclipse SUMO netconvert Version 1.9.2
<configuration xmlns:xsi="http://www.w3.org/2001/XMLSchema-instance" xsi:noNamespaceSchemaLocation="http://sumo.dlr.de/xsd/netconvertConfiguration.xsd">

    <input>
        <node-files value="network/inputs/input.nod.xml"/>
        <edge-files value="network/inputs/input_4_3_7_7.edg.xml"/>
        <connection-files value="network/inputs/input_rsll_rsl_rssslll_rrsssll.con.xml"/>
        <tllogic-files value="network/inputs/input_rsll_rsl_rssslll_rrsssll.tll.xml"/>
    </input>

    <output>
        <output-file value="network/rsll_rsl_rssslll_rrsssll.net.xml"/>
    </output>

    <report>
        <no-warnings value="true"/>
        <aggregate-warnings value="5"/>
        <log value="network/log/rsll_rsl_rssslll_rrsssll.log.xml"/>
    </report>

</configuration>
-->

<net version="1.9" junctionCornerDetail="5" limitTurnSpeed="5.50" xmlns:xsi="http://www.w3.org/2001/XMLSchema-instance" xsi:noNamespaceSchemaLocation="http://sumo.dlr.de/xsd/net_file.xsd">

    <location netOffset="300.00,300.00" convBoundary="0.00,0.00,600.00,600.00" origBoundary="-300.00,-300.00,300.00,300.00" projParameter="!"/>

    <edge id=":J0_0" function="internal">
        <lane id=":J0_0_0" index="0" speed="6.51" length="9.03" shape="288.80,313.60 288.45,311.15 287.40,309.40 285.65,308.35 283.20,308.00"/>
    </edge>
    <edge id=":J0_1" function="internal">
        <lane id=":J0_1_0" index="0" speed="13.89" length="40.00" shape="292.00,313.60 292.00,273.60"/>
    </edge>
    <edge id=":J0_2" function="internal">
        <lane id=":J0_2_0" index="0" speed="12.72" length="37.49" shape="295.20,313.60 298.83,307.87 307.47,301.86 317.78,297.12 326.40,295.20"/>
        <lane id=":J0_2_1" index="1" speed="11.99" length="33.15" shape="298.40,313.60 301.52,308.54 309.07,303.61 318.28,299.88 326.40,298.40"/>
    </edge>
    <edge id=":J0_4" function="internal">
        <lane id=":J0_4_0" index="0" speed="6.51" length="9.03" shape="326.40,308.00 323.95,308.35 322.20,309.40 321.15,311.15 320.80,313.60"/>
    </edge>
    <edge id=":J0_5" function="internal">
        <lane id=":J0_5_0" index="0" speed="13.89" length="43.20" shape="326.40,304.80 283.20,304.80"/>
    </edge>
    <edge id=":J0_6" function="internal">
        <lane id=":J0_6_0" index="0" speed="13.89" length="45.16" shape="326.40,301.60 314.15,299.85 305.40,294.60 300.15,285.85 298.40,273.60"/>
    </edge>
    <edge id=":J0_7" function="internal">
        <lane id=":J0_7_0" index="0" speed="6.51" length="9.03" shape="320.80,273.60 321.15,276.05 322.20,277.80 323.95,278.85 326.40,279.20"/>
    </edge>
    <edge id=":J0_8" function="internal">
        <lane id=":J0_8_0" index="0" speed="13.89" length="40.00" shape="317.60,273.60 317.60,313.60"/>
        <lane id=":J0_8_1" index="1" speed="13.89" length="40.00" shape="314.40,273.60 314.40,313.60"/>
        <lane id=":J0_8_2" index="2" speed="13.89" length="40.00" shape="311.20,273.60 311.20,313.60"/>
    </edge>
    <edge id=":J0_11" function="internal">
        <lane id=":J0_11_0" index="0" speed="13.72" length="43.74" shape="308.00,273.60 305.22,282.72 298.52,294.13 290.36,303.88 283.20,308.00"/>
        <lane id=":J0_11_1" index="1" speed="13.03" length="39.36" shape="304.80,273.60 302.49,282.22 296.85,292.53 289.78,301.18 283.20,304.80"/>
        <lane id=":J0_11_2" index="2" speed="12.30" length="34.99" shape="301.60,273.60 299.75,281.72 295.15,290.93 289.16,298.48 283.20,301.60"/>
    </edge>
    <edge id=":J0_14" function="internal">
        <lane id=":J0_14_0" index="0" speed="6.51" length="9.03" shape="283.20,279.20 285.65,278.85 287.40,277.80 288.45,276.05 288.80,273.60"/>
        <lane id=":J0_14_1" index="1" speed="8.00" length="14.19" shape="283.20,282.40 287.05,281.85 289.80,280.20 291.45,277.45 292.00,273.60"/>
    </edge>
    <edge id=":J0_16" function="internal">
        <lane id=":J0_16_0" index="0" speed="13.89" length="43.20" shape="283.20,285.60 326.40,285.60"/>
        <lane id=":J0_16_1" index="1" speed="13.89" length="43.20" shape="283.20,288.80 326.40,288.80"/>
        <lane id=":J0_16_2" index="2" speed="13.89" length="43.20" shape="283.20,292.00 326.40,292.00"/>
    </edge>
    <edge id=":J0_19" function="internal">
        <lane id=":J0_19_0" index="0" speed="11.84" length="32.30" shape="283.20,295.20 292.65,296.35 299.40,299.80 303.45,305.55 304.80,313.60"/>
        <lane id=":J0_19_1" index="1" speed="10.88" length="27.14" shape="283.20,298.40 291.25,299.35 297.00,302.20 300.45,306.95 301.60,313.60"/>
    </edge>
    <edge id=":J1_0" function="internal">
        <lane id=":J1_0_0" index="0" speed="3.65" length="4.67" shape="301.60,600.00 300.80,601.20 300.00,601.60 299.20,601.20 298.40,600.00"/>
    </edge>
    <edge id=":J2_0" function="internal">
        <lane id=":J2_0_0" index="0" speed="3.65" length="4.67" shape="600.00,298.40 601.20,299.20 601.60,300.00 601.20,300.80 600.00,301.60"/>
    </edge>
    <edge id=":J3_0" function="internal">
        <lane id=":J3_0_0" index="0" speed="3.65" length="4.67" shape="298.40,0.00 299.20,-1.20 300.00,-1.60 300.80,-1.20 301.60,0.00"/>
    </edge>
    <edge id=":J4_0" function="internal">
        <lane id=":J4_0_0" index="0" speed="3.65" length="4.67" shape="0.00,301.60 -1.20,300.80 -1.60,300.00 -1.20,299.20 0.00,298.40"/>
    </edge>

    <edge id="1I" from="J1" to="J0" priority="-1">
        <lane id="1I_0" index="0" speed="13.89" length="286.40" shape="288.80,600.00 288.80,313.60"/>
        <lane id="1I_1" index="1" speed="13.89" length="286.40" shape="292.00,600.00 292.00,313.60"/>
        <lane id="1I_2" index="2" speed="13.89" length="286.40" shape="295.20,600.00 295.20,313.60"/>
        <lane id="1I_3" index="3" speed="13.89" length="286.40" shape="298.40,600.00 298.40,313.60"/>
    </edge>
    <edge id="1O" from="J0" to="J1" priority="-1">
        <lane id="1O_0" index="0" speed="13.89" length="286.40" shape="320.80,313.60 320.80,600.00"/>
        <lane id="1O_1" index="1" speed="13.89" length="286.40" shape="317.60,313.60 317.60,600.00"/>
        <lane id="1O_2" index="2" speed="13.89" length="286.40" shape="314.40,313.60 314.40,600.00"/>
        <lane id="1O_3" index="3" speed="13.89" length="286.40" shape="311.20,313.60 311.20,600.00"/>
        <lane id="1O_4" index="4" speed="13.89" length="286.40" shape="308.00,313.60 308.00,600.00"/>
        <lane id="1O_5" index="5" speed="13.89" length="286.40" shape="304.80,313.60 304.80,600.00"/>
        <lane id="1O_6" index="6" speed="13.89" length="286.40" shape="301.60,313.60 301.60,600.00"/>
    </edge>
    <edge id="2I" from="J2" to="J0" priority="-1">
        <lane id="2I_0" index="0" speed="13.89" length="273.60" shape="600.00,308.00 326.40,308.00"/>
        <lane id="2I_1" index="1" speed="13.89" length="273.60" shape="600.00,304.80 326.40,304.80"/>
        <lane id="2I_2" index="2" speed="13.89" length="273.60" shape="600.00,301.60 326.40,301.60"/>
    </edge>
    <edge id="2O" from="J0" to="J2" priority="-1">
        <lane id="2O_0" index="0" speed="13.89" length="273.60" shape="326.40,279.20 600.00,279.20"/>
        <lane id="2O_1" index="1" speed="13.89" length="273.60" shape="326.40,282.40 600.00,282.40"/>
        <lane id="2O_2" index="2" speed="13.89" length="273.60" shape="326.40,285.60 600.00,285.60"/>
        <lane id="2O_3" index="3" speed="13.89" length="273.60" shape="326.40,288.80 600.00,288.80"/>
        <lane id="2O_4" index="4" speed="13.89" length="273.60" shape="326.40,292.00 600.00,292.00"/>
        <lane id="2O_5" index="5" speed="13.89" length="273.60" shape="326.40,295.20 600.00,295.20"/>
        <lane id="2O_6" index="6" speed="13.89" length="273.60" shape="326.40,298.40 600.00,298.40"/>
    </edge>
    <edge id="3I" from="J3" to="J0" priority="-1">
        <lane id="3I_0" index="0" speed="13.89" length="273.60" shape="320.80,0.00 320.80,273.60"/>
        <lane id="3I_1" index="1" speed="13.89" length="273.60" shape="317.60,0.00 317.60,273.60"/>
        <lane id="3I_2" index="2" speed="13.89" length="273.60" shape="314.40,0.00 314.40,273.60"/>
        <lane id="3I_3" index="3" speed="13.89" length="273.60" shape="311.20,0.00 311.20,273.60"/>
        <lane id="3I_4" index="4" speed="13.89" length="273.60" shape="308.00,0.00 308.00,273.60"/>
        <lane id="3I_5" index="5" speed="13.89" length="273.60" shape="304.80,0.00 304.80,273.60"/>
        <lane id="3I_6" index="6" speed="13.89" length="273.60" shape="301.60,0.00 301.60,273.60"/>
    </edge>
    <edge id="3O" from="J0" to="J3" priority="-1">
        <lane id="3O_0" index="0" speed="13.89" length="273.60" shape="288.80,273.60 288.80,0.00"/>
        <lane id="3O_1" index="1" speed="13.89" length="273.60" shape="292.00,273.60 292.00,0.00"/>
        <lane id="3O_2" index="2" speed="13.89" length="273.60" shape="295.20,273.60 295.20,0.00"/>
        <lane id="3O_3" index="3" speed="13.89" length="273.60" shape="298.40,273.60 298.40,0.00"/>
    </edge>
    <edge id="4I" from="J4" to="J0" priority="-1">
        <lane id="4I_0" index="0" speed="13.89" length="283.20" shape="0.00,279.20 283.20,279.20"/>
        <lane id="4I_1" index="1" speed="13.89" length="283.20" shape="0.00,282.40 283.20,282.40"/>
        <lane id="4I_2" index="2" speed="13.89" length="283.20" shape="0.00,285.60 283.20,285.60"/>
        <lane id="4I_3" index="3" speed="13.89" length="283.20" shape="0.00,288.80 283.20,288.80"/>
        <lane id="4I_4" index="4" speed="13.89" length="283.20" shape="0.00,292.00 283.20,292.00"/>
        <lane id="4I_5" index="5" speed="13.89" length="283.20" shape="0.00,295.20 283.20,295.20"/>
        <lane id="4I_6" index="6" speed="13.89" length="283.20" shape="0.00,298.40 283.20,298.40"/>
    </edge>
    <edge id="4O" from="J0" to="J4" priority="-1">
        <lane id="4O_0" index="0" speed="13.89" length="283.20" shape="283.20,308.00 0.00,308.00"/>
        <lane id="4O_1" index="1" speed="13.89" length="283.20" shape="283.20,304.80 0.00,304.80"/>
        <lane id="4O_2" index="2" speed="13.89" length="283.20" shape="283.20,301.60 0.00,301.60"/>
    </edge>

    <tlLogic id="J0" type="static" programID="0" offset="0">
        <phase duration="15" state="rrGGGrrrrrrGGGGGrrrrr"/>
        <phase duration="3"  state="rrYYYrrrrrrYYYYYrrrrr"/>
        <phase duration="15" state="GGrrrrrGGGGrrrrrrrrrr"/>
        <phase duration="3"  state="GYrrrrrGYYYrrrrrrrrrr"/>
        <phase duration="15" state="GrrrrrGGrrrrrrrrrrrGG"/>
        <phase duration="3"  state="YrrrrrYYrrrrrrrrrrrYY"/>
        <phase duration="15" state="rrrrGGrrrrrrrrGGGGGrr"/>
        <phase duration="3"  state="rrrrGYrrrrrrrrGGYYYrr"/>
    </tlLogic>

    <junction id="J0" type="traffic_light" x="300.00" y="300.00" incLanes="1I_0 1I_1 1I_2 1I_3 2I_0 2I_1 2I_2 3I_0 3I_1 3I_2 3I_3 3I_4 3I_5 3I_6 4I_0 4I_1 4I_2 4I_3 4I_4 4I_5 4I_6" intLanes=":J0_0_0 :J0_1_0 :J0_2_0 :J0_2_1 :J0_4_0 :J0_5_0 :J0_6_0 :J0_7_0 :J0_8_0 :J0_8_1 :J0_8_2 :J0_11_0 :J0_11_1 :J0_11_2 :J0_14_0 :J0_14_1 :J0_16_0 :J0_16_1 :J0_16_2 :J0_19_0 :J0_19_1" shape="287.20,313.60 322.40,313.60 322.84,311.38 323.40,310.60 324.18,310.04 325.18,309.71 326.40,309.60 326.40,277.60 324.18,277.16 323.40,276.60 322.84,275.82 322.51,274.82 322.40,273.60 287.20,273.60 286.76,275.82 286.20,276.60 285.42,277.16 284.42,277.49 283.20,277.60 283.20,309.60 285.42,310.04 286.20,310.60 286.76,311.38 287.09,312.38">
        <request index="0"  response="000000000000000000000" foes="000000011100000000000" cont="0"/>
        <request index="1"  response="000000000000000000000" foes="111111111100000100000" cont="0"/>
        <request index="2"  response="000000000011100000000" foes="110000000011101100000" cont="0"/>
        <request index="3"  response="000000000011100000000" foes="110000000011101100000" cont="0"/>
        <request index="4"  response="000000000000000000000" foes="000000000000000000000" cont="0"/>
        <request index="5"  response="000000011111100001110" foes="110000011111100001110" cont="0"/>
        <request index="6"  response="001110011111100001100" foes="001110011111100001100" cont="0"/>
        <request index="7"  response="000000000000000000000" foes="000000000000000000000" cont="0"/>
        <request index="8"  response="000000000000000000000" foes="001110000000001101100" cont="0"/>
        <request index="9"  response="000000000000000000000" foes="001110000000001101100" cont="0"/>
        <request index="10" response="000000000000000000000" foes="001110000000001101100" cont="0"/>
        <request index="11" response="000000000000000000011" foes="111110000000001100011" cont="0"/>
        <request index="12" response="000000000000000000011" foes="111110000000001100011" cont="0"/>
        <request index="13" response="000000000000000000011" foes="111110000000001100011" cont="0"/>
        <request index="14" response="000000000000000000010" foes="000000000000000000010" cont="0"/>
        <request index="15" response="000000000000000000010" foes="000000000000000000010" cont="0"/>
        <request index="16" response="000000011111100000010" foes="000000011111101000010" cont="0"/>
        <request index="17" response="000000011111100000010" foes="000000011111101000010" cont="0"/>
        <request index="18" response="000000011111100000010" foes="000000011111101000010" cont="0"/>
        <request index="19" response="000000011100000101110" foes="000000011100000101110" cont="0"/>
        <request index="20" response="000000011100000101110" foes="000000011100000101110" cont="0"/>
    </junction>
    <junction id="J1" type="priority" x="300.00" y="600.00" incLanes="1O_0 1O_1 1O_2 1O_3 1O_4 1O_5 1O_6" intLanes=":J1_0_0" shape="300.00,600.00 322.40,600.00 300.00,600.00">
        <request index="0" response="0" foes="0" cont="0"/>
    </junction>
    <junction id="J2" type="priority" x="600.00" y="300.00" incLanes="2O_0 2O_1 2O_2 2O_3 2O_4 2O_5 2O_6" intLanes=":J2_0_0" shape="600.00,300.00 600.00,277.60 600.00,300.00">
        <request index="0" response="0" foes="0" cont="0"/>
    </junction>
    <junction id="J3" type="priority" x="300.00" y="0.00" incLanes="3O_0 3O_1 3O_2 3O_3" intLanes=":J3_0_0" shape="300.00,0.00 287.20,0.00 300.00,0.00">
        <request index="0" response="0" foes="0" cont="0"/>
    </junction>
    <junction id="J4" type="priority" x="0.00" y="300.00" incLanes="4O_0 4O_1 4O_2" intLanes=":J4_0_0" shape="0.00,300.00 0.00,309.60 0.00,300.00">
        <request index="0" response="0" foes="0" cont="0"/>
    </junction>

    <connection from="1I" to="4O" fromLane="0" toLane="0" contPos="0.00" via=":J0_0_0" tl="J0" linkIndex="0" dir="r" state="O"/>
    <connection from="1I" to="3O" fromLane="1" toLane="1" contPos="0.00" via=":J0_1_0" tl="J0" linkIndex="1" dir="s" state="O"/>
    <connection from="1I" to="2O" fromLane="2" toLane="5" contPos="0.00" via=":J0_2_0" tl="J0" linkIndex="2" dir="l" state="o"/>
    <connection from="1I" to="2O" fromLane="3" toLane="6" contPos="0.00" via=":J0_2_1" tl="J0" linkIndex="3" dir="l" state="o"/>
    <connection from="1O" to="1I" fromLane="6" toLane="3" via=":J1_0_0" dir="t" state="M"/>
    <connection from="2I" to="1O" fromLane="0" toLane="0" contPos="0.00" via=":J0_4_0" tl="J0" linkIndex="4" dir="r" state="O"/>
    <connection from="2I" to="4O" fromLane="1" toLane="1" contPos="0.00" via=":J0_5_0" tl="J0" linkIndex="5" dir="s" state="o"/>
    <connection from="2I" to="3O" fromLane="2" toLane="3" contPos="0.00" via=":J0_6_0" tl="J0" linkIndex="6" dir="l" state="o"/>
    <connection from="2O" to="2I" fromLane="6" toLane="2" via=":J2_0_0" dir="t" state="M"/>
    <connection from="3I" to="2O" fromLane="0" toLane="0" contPos="0.00" via=":J0_7_0" tl="J0" linkIndex="7" dir="r" state="O"/>
    <connection from="3I" to="1O" fromLane="1" toLane="1" contPos="0.00" via=":J0_8_0" tl="J0" linkIndex="8" dir="s" state="O"/>
    <connection from="3I" to="1O" fromLane="2" toLane="2" contPos="0.00" via=":J0_8_1" tl="J0" linkIndex="9" dir="s" state="O"/>
    <connection from="3I" to="1O" fromLane="3" toLane="3" contPos="0.00" via=":J0_8_2" tl="J0" linkIndex="10" dir="s" state="O"/>
    <connection from="3I" to="4O" fromLane="4" toLane="0" contPos="0.00" via=":J0_11_0" tl="J0" linkIndex="11" dir="l" state="o"/>
    <connection from="3I" to="4O" fromLane="5" toLane="1" contPos="0.00" via=":J0_11_1" tl="J0" linkIndex="12" dir="l" state="o"/>
    <connection from="3I" to="4O" fromLane="6" toLane="2" contPos="0.00" via=":J0_11_2" tl="J0" linkIndex="13" dir="l" state="o"/>
    <connection from="3O" to="3I" fromLane="3" toLane="6" via=":J3_0_0" dir="t" state="M"/>
    <connection from="4I" to="3O" fromLane="0" toLane="0" contPos="0.00" via=":J0_14_0" tl="J0" linkIndex="14" dir="r" state="o"/>
    <connection from="4I" to="3O" fromLane="1" toLane="1" contPos="0.00" via=":J0_14_1" tl="J0" linkIndex="15" dir="r" state="o"/>
    <connection from="4I" to="2O" fromLane="2" toLane="2" contPos="0.00" via=":J0_16_0" tl="J0" linkIndex="16" dir="s" state="o"/>
    <connection from="4I" to="2O" fromLane="3" toLane="3" contPos="0.00" via=":J0_16_1" tl="J0" linkIndex="17" dir="s" state="o"/>
    <connection from="4I" to="2O" fromLane="4" toLane="4" contPos="0.00" via=":J0_16_2" tl="J0" linkIndex="18" dir="s" state="o"/>
    <connection from="4I" to="1O" fromLane="5" toLane="5" contPos="0.00" via=":J0_19_0" tl="J0" linkIndex="19" dir="l" state="o"/>
    <connection from="4I" to="1O" fromLane="6" toLane="6" contPos="0.00" via=":J0_19_1" tl="J0" linkIndex="20" dir="l" state="o"/>
    <connection from="4O" to="4I" fromLane="2" toLane="6" via=":J4_0_0" dir="t" state="M"/>

    <connection from=":J0_0" to="4O" fromLane="0" toLane="0" dir="r" state="M"/>
    <connection from=":J0_1" to="3O" fromLane="0" toLane="1" dir="s" state="M"/>
    <connection from=":J0_2" to="2O" fromLane="0" toLane="5" dir="l" state="M"/>
    <connection from=":J0_2" to="2O" fromLane="1" toLane="6" dir="l" state="M"/>
    <connection from=":J0_4" to="1O" fromLane="0" toLane="0" dir="r" state="M"/>
    <connection from=":J0_5" to="4O" fromLane="0" toLane="1" dir="s" state="M"/>
    <connection from=":J0_6" to="3O" fromLane="0" toLane="3" dir="l" state="M"/>
    <connection from=":J0_7" to="2O" fromLane="0" toLane="0" dir="r" state="M"/>
    <connection from=":J0_8" to="1O" fromLane="0" toLane="1" dir="s" state="M"/>
    <connection from=":J0_8" to="1O" fromLane="1" toLane="2" dir="s" state="M"/>
    <connection from=":J0_8" to="1O" fromLane="2" toLane="3" dir="s" state="M"/>
    <connection from=":J0_11" to="4O" fromLane="0" toLane="0" dir="l" state="M"/>
    <connection from=":J0_11" to="4O" fromLane="1" toLane="1" dir="l" state="M"/>
    <connection from=":J0_11" to="4O" fromLane="2" toLane="2" dir="l" state="M"/>
    <connection from=":J0_14" to="3O" fromLane="0" toLane="0" dir="r" state="M"/>
    <connection from=":J0_14" to="3O" fromLane="1" toLane="1" dir="r" state="M"/>
    <connection from=":J0_16" to="2O" fromLane="0" toLane="2" dir="s" state="M"/>
    <connection from=":J0_16" to="2O" fromLane="1" toLane="3" dir="s" state="M"/>
    <connection from=":J0_16" to="2O" fromLane="2" toLane="4" dir="s" state="M"/>
    <connection from=":J0_19" to="1O" fromLane="0" toLane="5" dir="l" state="M"/>
    <connection from=":J0_19" to="1O" fromLane="1" toLane="6" dir="l" state="M"/>
    <connection from=":J1_0" to="1I" fromLane="0" toLane="3" dir="t" state="M"/>
    <connection from=":J2_0" to="2I" fromLane="0" toLane="2" dir="t" state="M"/>
    <connection from=":J3_0" to="3I" fromLane="0" toLane="6" dir="t" state="M"/>
    <connection from=":J4_0" to="4I" fromLane="0" toLane="6" dir="t" state="M"/>

</net>
