<?xml version="1.0" encoding="UTF-8"?>

<!-- generated on 2022-04-07 14:05:15 by Eclipse SUMO netconvert Version 1.9.2
<configuration xmlns:xsi="http://www.w3.org/2001/XMLSchema-instance" xsi:noNamespaceSchemaLocation="http://sumo.dlr.de/xsd/netconvertConfiguration.xsd">

    <input>
        <node-files value="network/inputs/input.nod.xml"/>
        <edge-files value="network/inputs/input_4_3_3_4.edg.xml"/>
        <connection-files value="network/inputs/input_rssl_rsl_rsl_rrsl.con.xml"/>
        <tllogic-files value="network/inputs/input_rssl_rsl_rsl_rrsl.tll.xml"/>
    </input>

    <output>
        <output-file value="network/rssl_rsl_rsl_rrsl.net.xml"/>
    </output>

    <report>
        <no-warnings value="true"/>
        <aggregate-warnings value="5"/>
        <log value="network/log/rssl_rsl_rsl_rrsl.log.xml"/>
    </report>

</configuration>
-->

<net version="1.9" junctionCornerDetail="5" limitTurnSpeed="5.50" xmlns:xsi="http://www.w3.org/2001/XMLSchema-instance" xsi:noNamespaceSchemaLocation="http://sumo.dlr.de/xsd/net_file.xsd">

    <location netOffset="300.00,300.00" convBoundary="0.00,0.00,600.00,600.00" origBoundary="-300.00,-300.00,300.00,300.00" projParameter="!"/>

    <edge id=":J0_0" function="internal">
        <lane id=":J0_0_0" index="0" speed="6.51" length="9.03" shape="288.80,313.60 288.45,311.15 287.40,309.40 285.65,308.35 283.20,308.00"/>
    </edge>
    <edge id=":J0_1" function="internal">
        <lane id=":J0_1_0" index="0" speed="13.89" length="30.40" shape="292.00,313.60 292.00,283.20"/>
        <lane id=":J0_1_1" index="1" speed="13.89" length="30.40" shape="295.20,313.60 295.20,283.20"/>
    </edge>
    <edge id=":J0_3" function="internal">
        <lane id=":J0_3_0" index="0" speed="10.36" length="24.51" shape="298.40,313.60 299.35,306.95 302.20,302.20 306.95,299.35 313.60,298.40"/>
    </edge>
    <edge id=":J0_4" function="internal">
        <lane id=":J0_4_0" index="0" speed="6.51" length="9.03" shape="313.60,308.00 311.15,308.35 309.40,309.40 308.35,311.15 308.00,313.60"/>
    </edge>
    <edge id=":J0_5" function="internal">
        <lane id=":J0_5_0" index="0" speed="13.89" length="30.40" shape="313.60,304.80 283.20,304.80"/>
    </edge>
    <edge id=":J0_6" function="internal">
        <lane id=":J0_6_0" index="0" speed="10.88" length="27.14" shape="313.60,301.60 306.95,300.45 302.20,297.00 299.35,291.25 298.40,283.20"/>
    </edge>
    <edge id=":J0_7" function="internal">
        <lane id=":J0_7_0" index="0" speed="6.51" length="9.03" shape="308.00,283.20 308.35,285.65 309.40,287.40 311.15,288.45 313.60,288.80"/>
    </edge>
    <edge id=":J0_8" function="internal">
        <lane id=":J0_8_0" index="0" speed="13.89" length="30.40" shape="304.80,283.20 304.80,313.60"/>
    </edge>
    <edge id=":J0_9" function="internal">
        <lane id=":J0_9_0" index="0" speed="11.36" length="29.67" shape="301.60,283.20 300.45,291.25 297.00,297.00 291.25,300.45 283.20,301.60"/>
    </edge>
    <edge id=":J0_10" function="internal">
        <lane id=":J0_10_0" index="0" speed="6.51" length="9.03" shape="283.20,288.80 285.65,288.45 287.40,287.40 288.45,285.65 288.80,283.20"/>
        <lane id=":J0_10_1" index="1" speed="8.00" length="14.19" shape="283.20,292.00 287.05,291.45 289.80,289.80 291.45,287.05 292.00,283.20"/>
    </edge>
    <edge id=":J0_12" function="internal">
        <lane id=":J0_12_0" index="0" speed="13.89" length="30.40" shape="283.20,295.20 313.60,295.20"/>
    </edge>
    <edge id=":J0_13" function="internal">
        <lane id=":J0_13_0" index="0" speed="10.88" length="27.14" shape="283.20,298.40 291.25,299.35 297.00,302.20 300.45,306.95 301.60,313.60"/>
    </edge>
    <edge id=":J1_0" function="internal">
        <lane id=":J1_0_0" index="0" speed="3.65" length="4.67" shape="301.60,600.00 300.80,601.20 300.00,601.60 299.20,601.20 298.40,600.00"/>
    </edge>
    <edge id=":J2_0" function="internal">
        <lane id=":J2_0_0" index="0" speed="3.65" length="4.67" shape="600.00,298.40 601.20,299.20 601.60,300.00 601.20,300.80 600.00,301.60"/>
    </edge>
    <edge id=":J3_0" function="internal">
        <lane id=":J3_0_0" index="0" speed="3.65" length="4.67" shape="298.40,0.00 299.20,-1.20 300.00,-1.60 300.80,-1.20 301.60,0.00"/>
    </edge>
    <edge id=":J4_0" function="internal">
        <lane id=":J4_0_0" index="0" speed="3.65" length="4.67" shape="0.00,301.60 -1.20,300.80 -1.60,300.00 -1.20,299.20 0.00,298.40"/>
    </edge>

    <edge id="1I" from="J1" to="J0" priority="-1">
        <lane id="1I_0" index="0" speed="13.89" length="286.40" shape="288.80,600.00 288.80,313.60"/>
        <lane id="1I_1" index="1" speed="13.89" length="286.40" shape="292.00,600.00 292.00,313.60"/>
        <lane id="1I_2" index="2" speed="13.89" length="286.40" shape="295.20,600.00 295.20,313.60"/>
        <lane id="1I_3" index="3" speed="13.89" length="286.40" shape="298.40,600.00 298.40,313.60"/>
    </edge>
    <edge id="1O" from="J0" to="J1" priority="-1">
        <lane id="1O_0" index="0" speed="13.89" length="286.40" shape="308.00,313.60 308.00,600.00"/>
        <lane id="1O_1" index="1" speed="13.89" length="286.40" shape="304.80,313.60 304.80,600.00"/>
        <lane id="1O_2" index="2" speed="13.89" length="286.40" shape="301.60,313.60 301.60,600.00"/>
    </edge>
    <edge id="2I" from="J2" to="J0" priority="-1">
        <lane id="2I_0" index="0" speed="13.89" length="286.40" shape="600.00,308.00 313.60,308.00"/>
        <lane id="2I_1" index="1" speed="13.89" length="286.40" shape="600.00,304.80 313.60,304.80"/>
        <lane id="2I_2" index="2" speed="13.89" length="286.40" shape="600.00,301.60 313.60,301.60"/>
    </edge>
    <edge id="2O" from="J0" to="J2" priority="-1">
        <lane id="2O_0" index="0" speed="13.89" length="286.40" shape="313.60,288.80 600.00,288.80"/>
        <lane id="2O_1" index="1" speed="13.89" length="286.40" shape="313.60,292.00 600.00,292.00"/>
        <lane id="2O_2" index="2" speed="13.89" length="286.40" shape="313.60,295.20 600.00,295.20"/>
        <lane id="2O_3" index="3" speed="13.89" length="286.40" shape="313.60,298.40 600.00,298.40"/>
    </edge>
    <edge id="3I" from="J3" to="J0" priority="-1">
        <lane id="3I_0" index="0" speed="13.89" length="283.20" shape="308.00,0.00 308.00,283.20"/>
        <lane id="3I_1" index="1" speed="13.89" length="283.20" shape="304.80,0.00 304.80,283.20"/>
        <lane id="3I_2" index="2" speed="13.89" length="283.20" shape="301.60,0.00 301.60,283.20"/>
    </edge>
    <edge id="3O" from="J0" to="J3" priority="-1">
        <lane id="3O_0" index="0" speed="13.89" length="283.20" shape="288.80,283.20 288.80,0.00"/>
        <lane id="3O_1" index="1" speed="13.89" length="283.20" shape="292.00,283.20 292.00,0.00"/>
        <lane id="3O_2" index="2" speed="13.89" length="283.20" shape="295.20,283.20 295.20,0.00"/>
        <lane id="3O_3" index="3" speed="13.89" length="283.20" shape="298.40,283.20 298.40,0.00"/>
    </edge>
    <edge id="4I" from="J4" to="J0" priority="-1">
        <lane id="4I_0" index="0" speed="13.89" length="283.20" shape="0.00,288.80 283.20,288.80"/>
        <lane id="4I_1" index="1" speed="13.89" length="283.20" shape="0.00,292.00 283.20,292.00"/>
        <lane id="4I_2" index="2" speed="13.89" length="283.20" shape="0.00,295.20 283.20,295.20"/>
        <lane id="4I_3" index="3" speed="13.89" length="283.20" shape="0.00,298.40 283.20,298.40"/>
    </edge>
    <edge id="4O" from="J0" to="J4" priority="-1">
        <lane id="4O_0" index="0" speed="13.89" length="283.20" shape="283.20,308.00 0.00,308.00"/>
        <lane id="4O_1" index="1" speed="13.89" length="283.20" shape="283.20,304.80 0.00,304.80"/>
        <lane id="4O_2" index="2" speed="13.89" length="283.20" shape="283.20,301.60 0.00,301.60"/>
    </edge>

    <tlLogic id="J0" type="static" programID="0" offset="0">
        <phase duration="15" state="rrrGGrrrrGGGrr"/>
        <phase duration="3"  state="rrrYYrrrrYYYrr"/>
        <phase duration="15" state="GGGrrrrGGrrrrr"/>
        <phase duration="3"  state="GYYrrrrGYrrrrr"/>
        <phase duration="15" state="GrrrrrGGrrrrrG"/>
        <phase duration="3"  state="YrrrrrYYrrrrrY"/>
        <phase duration="15" state="rrrrGGrrrrGGGr"/>
        <phase duration="3"  state="rrrrGYrrrrGGYr"/>
    </tlLogic>

    <junction id="J0" type="traffic_light" x="300.00" y="300.00" incLanes="1I_0 1I_1 1I_2 1I_3 2I_0 2I_1 2I_2 3I_0 3I_1 3I_2 4I_0 4I_1 4I_2 4I_3" intLanes=":J0_0_0 :J0_1_0 :J0_1_1 :J0_3_0 :J0_4_0 :J0_5_0 :J0_6_0 :J0_7_0 :J0_8_0 :J0_9_0 :J0_10_0 :J0_10_1 :J0_12_0 :J0_13_0" shape="287.20,313.60 309.60,313.60 310.04,311.38 310.60,310.60 311.38,310.04 312.38,309.71 313.60,309.60 313.60,287.20 311.38,286.76 310.60,286.20 310.04,285.42 309.71,284.42 309.60,283.20 287.20,283.20 286.76,285.42 286.20,286.20 285.42,286.76 284.42,287.09 283.20,287.20 283.20,309.60 285.42,310.04 286.20,310.60 286.76,311.38 287.09,312.38">
        <request index="0"  response="00000000000000" foes="00000000000000" cont="0"/>
        <request index="1"  response="00000000000000" foes="11111000100000" cont="0"/>
        <request index="2"  response="00000000000000" foes="11111000100000" cont="0"/>
        <request index="3"  response="00000100000000" foes="10000101100000" cont="0"/>
        <request index="4"  response="00000000000000" foes="00000000000000" cont="0"/>
        <request index="5"  response="00000100001110" foes="10000100001110" cont="0"/>
        <request index="6"  response="01001100001000" foes="01001100001000" cont="0"/>
        <request index="7"  response="00000000000000" foes="00000000000000" cont="0"/>
        <request index="8"  response="00000000000000" foes="01000001101000" cont="0"/>
        <request index="9"  response="00000000000110" foes="11000001000110" cont="0"/>
        <request index="10" response="00000000000110" foes="00000000000110" cont="0"/>
        <request index="11" response="00000000000110" foes="00000000000110" cont="0"/>
        <request index="12" response="00001100000110" foes="00001101000110" cont="0"/>
        <request index="13" response="00001000101110" foes="00001000101110" cont="0"/>
    </junction>
    <junction id="J1" type="priority" x="300.00" y="600.00" incLanes="1O_0 1O_1 1O_2" intLanes=":J1_0_0" shape="300.00,600.00 309.60,600.00 300.00,600.00">
        <request index="0" response="0" foes="0" cont="0"/>
    </junction>
    <junction id="J2" type="priority" x="600.00" y="300.00" incLanes="2O_0 2O_1 2O_2 2O_3" intLanes=":J2_0_0" shape="600.00,300.00 600.00,287.20 600.00,300.00">
        <request index="0" response="0" foes="0" cont="0"/>
    </junction>
    <junction id="J3" type="priority" x="300.00" y="0.00" incLanes="3O_0 3O_1 3O_2 3O_3" intLanes=":J3_0_0" shape="300.00,0.00 287.20,0.00 300.00,0.00">
        <request index="0" response="0" foes="0" cont="0"/>
    </junction>
    <junction id="J4" type="priority" x="0.00" y="300.00" incLanes="4O_0 4O_1 4O_2" intLanes=":J4_0_0" shape="0.00,300.00 0.00,309.60 0.00,300.00">
        <request index="0" response="0" foes="0" cont="0"/>
    </junction>

    <connection from="1I" to="4O" fromLane="0" toLane="0" contPos="0.00" via=":J0_0_0" tl="J0" linkIndex="0" dir="r" state="O"/>
    <connection from="1I" to="3O" fromLane="1" toLane="1" contPos="0.00" via=":J0_1_0" tl="J0" linkIndex="1" dir="s" state="O"/>
    <connection from="1I" to="3O" fromLane="2" toLane="2" contPos="0.00" via=":J0_1_1" tl="J0" linkIndex="2" dir="s" state="O"/>
    <connection from="1I" to="2O" fromLane="3" toLane="3" contPos="0.00" via=":J0_3_0" tl="J0" linkIndex="3" dir="l" state="o"/>
    <connection from="1O" to="1I" fromLane="2" toLane="3" via=":J1_0_0" dir="t" state="M"/>
    <connection from="2I" to="1O" fromLane="0" toLane="0" contPos="0.00" via=":J0_4_0" tl="J0" linkIndex="4" dir="r" state="O"/>
    <connection from="2I" to="4O" fromLane="1" toLane="1" contPos="0.00" via=":J0_5_0" tl="J0" linkIndex="5" dir="s" state="o"/>
    <connection from="2I" to="3O" fromLane="2" toLane="3" contPos="0.00" via=":J0_6_0" tl="J0" linkIndex="6" dir="l" state="o"/>
    <connection from="2O" to="2I" fromLane="3" toLane="2" via=":J2_0_0" dir="t" state="M"/>
    <connection from="3I" to="2O" fromLane="0" toLane="0" contPos="0.00" via=":J0_7_0" tl="J0" linkIndex="7" dir="r" state="O"/>
    <connection from="3I" to="1O" fromLane="1" toLane="1" contPos="0.00" via=":J0_8_0" tl="J0" linkIndex="8" dir="s" state="O"/>
    <connection from="3I" to="4O" fromLane="2" toLane="2" contPos="0.00" via=":J0_9_0" tl="J0" linkIndex="9" dir="l" state="o"/>
    <connection from="3O" to="3I" fromLane="3" toLane="2" via=":J3_0_0" dir="t" state="M"/>
    <connection from="4I" to="3O" fromLane="0" toLane="0" contPos="0.00" via=":J0_10_0" tl="J0" linkIndex="10" dir="r" state="o"/>
    <connection from="4I" to="3O" fromLane="1" toLane="1" contPos="0.00" via=":J0_10_1" tl="J0" linkIndex="11" dir="r" state="o"/>
    <connection from="4I" to="2O" fromLane="2" toLane="2" contPos="0.00" via=":J0_12_0" tl="J0" linkIndex="12" dir="s" state="o"/>
    <connection from="4I" to="1O" fromLane="3" toLane="2" contPos="0.00" via=":J0_13_0" tl="J0" linkIndex="13" dir="l" state="o"/>
    <connection from="4O" to="4I" fromLane="2" toLane="3" via=":J4_0_0" dir="t" state="M"/>

    <connection from=":J0_0" to="4O" fromLane="0" toLane="0" dir="r" state="M"/>
    <connection from=":J0_1" to="3O" fromLane="0" toLane="1" dir="s" state="M"/>
    <connection from=":J0_1" to="3O" fromLane="1" toLane="2" dir="s" state="M"/>
    <connection from=":J0_3" to="2O" fromLane="0" toLane="3" dir="l" state="M"/>
    <connection from=":J0_4" to="1O" fromLane="0" toLane="0" dir="r" state="M"/>
    <connection from=":J0_5" to="4O" fromLane="0" toLane="1" dir="s" state="M"/>
    <connection from=":J0_6" to="3O" fromLane="0" toLane="3" dir="l" state="M"/>
    <connection from=":J0_7" to="2O" fromLane="0" toLane="0" dir="r" state="M"/>
    <connection from=":J0_8" to="1O" fromLane="0" toLane="1" dir="s" state="M"/>
    <connection from=":J0_9" to="4O" fromLane="0" toLane="2" dir="l" state="M"/>
    <connection from=":J0_10" to="3O" fromLane="0" toLane="0" dir="r" state="M"/>
    <connection from=":J0_10" to="3O" fromLane="1" toLane="1" dir="r" state="M"/>
    <connection from=":J0_12" to="2O" fromLane="0" toLane="2" dir="s" state="M"/>
    <connection from=":J0_13" to="1O" fromLane="0" toLane="2" dir="l" state="M"/>
    <connection from=":J1_0" to="1I" fromLane="0" toLane="3" dir="t" state="M"/>
    <connection from=":J2_0" to="2I" fromLane="0" toLane="2" dir="t" state="M"/>
    <connection from=":J3_0" to="3I" fromLane="0" toLane="2" dir="t" state="M"/>
    <connection from=":J4_0" to="4I" fromLane="0" toLane="3" dir="t" state="M"/>

</net>
