<?xml version="1.0" encoding="UTF-8"?>

<!-- generated on 2022-04-07 14:06:29 by Eclipse SUMO netconvert Version 1.9.2
<configuration xmlns:xsi="http://www.w3.org/2001/XMLSchema-instance" xsi:noNamespaceSchemaLocation="http://sumo.dlr.de/xsd/netconvertConfiguration.xsd">

    <input>
        <node-files value="network/inputs/input.nod.xml"/>
        <edge-files value="network/inputs/input_6_7_7_5.edg.xml"/>
        <connection-files value="network/inputs/input_rsslll_rrsslll_rssslll_rsssl.con.xml"/>
        <tllogic-files value="network/inputs/input_rsslll_rrsslll_rssslll_rsssl.tll.xml"/>
    </input>

    <output>
        <output-file value="network/rsslll_rrsslll_rssslll_rsssl.net.xml"/>
    </output>

    <report>
        <no-warnings value="true"/>
        <aggregate-warnings value="5"/>
        <log value="network/log/rsslll_rrsslll_rssslll_rsssl.log.xml"/>
    </report>

</configuration>
-->

<net version="1.9" junctionCornerDetail="5" limitTurnSpeed="5.50" xmlns:xsi="http://www.w3.org/2001/XMLSchema-instance" xsi:noNamespaceSchemaLocation="http://sumo.dlr.de/xsd/net_file.xsd">

    <location netOffset="300.00,300.00" convBoundary="0.00,0.00,600.00,600.00" origBoundary="-300.00,-300.00,300.00,300.00" projParameter="!"/>

    <edge id=":J0_0" function="internal">
        <lane id=":J0_0_0" index="0" speed="6.51" length="9.03" shape="282.40,326.40 282.05,323.95 281.00,322.20 279.25,321.15 276.80,320.80"/>
    </edge>
    <edge id=":J0_1" function="internal">
        <lane id=":J0_1_0" index="0" speed="13.89" length="46.40" shape="285.60,326.40 285.60,280.00"/>
        <lane id=":J0_1_1" index="1" speed="13.89" length="46.40" shape="288.80,326.40 288.80,280.00"/>
    </edge>
    <edge id=":J0_3" function="internal">
        <lane id=":J0_3_0" index="0" speed="13.89" length="50.03" shape="292.00,326.40 296.12,317.28 305.87,305.87 317.28,296.12 326.40,292.00"/>
        <lane id=":J0_3_1" index="1" speed="13.89" length="45.61" shape="295.20,326.40 298.83,317.78 307.47,307.47 317.78,298.82 326.40,295.20"/>
        <lane id=":J0_3_2" index="2" speed="13.33" length="41.22" shape="298.40,326.40 301.52,318.28 309.07,309.07 318.28,301.52 326.40,298.40"/>
    </edge>
    <edge id=":J0_6" function="internal">
        <lane id=":J0_6_0" index="0" speed="6.51" length="9.03" shape="326.40,320.80 323.95,321.15 322.20,322.20 321.15,323.95 320.80,326.40"/>
        <lane id=":J0_6_1" index="1" speed="8.00" length="14.19" shape="326.40,317.60 322.55,318.15 319.80,319.80 318.15,322.55 317.60,326.40"/>
    </edge>
    <edge id=":J0_8" function="internal">
        <lane id=":J0_8_0" index="0" speed="13.89" length="49.60" shape="326.40,314.40 276.80,314.40"/>
        <lane id=":J0_8_1" index="1" speed="13.89" length="49.60" shape="326.40,311.20 276.80,311.20"/>
    </edge>
    <edge id=":J0_10" function="internal">
        <lane id=":J0_10_0" index="0" speed="13.89" length="50.42" shape="326.40,308.00 311.35,306.25 300.60,301.00 294.15,292.25 292.00,280.00"/>
        <lane id=":J0_10_1" index="1" speed="13.89" length="45.27" shape="326.40,304.80 312.75,303.25 303.00,298.60 297.15,290.85 295.20,280.00"/>
        <lane id=":J0_10_2" index="2" speed="13.15" length="40.13" shape="326.40,301.60 314.15,300.25 305.40,296.20 300.15,289.45 298.40,280.00"/>
    </edge>
    <edge id=":J0_13" function="internal">
        <lane id=":J0_13_0" index="0" speed="6.51" length="9.03" shape="320.80,280.00 321.15,282.45 322.20,284.20 323.95,285.25 326.40,285.60"/>
    </edge>
    <edge id=":J0_14" function="internal">
        <lane id=":J0_14_0" index="0" speed="13.89" length="46.40" shape="317.60,280.00 317.60,326.40"/>
        <lane id=":J0_14_1" index="1" speed="13.89" length="46.40" shape="314.40,280.00 314.40,326.40"/>
        <lane id=":J0_14_2" index="2" speed="13.89" length="46.40" shape="311.20,280.00 311.20,326.40"/>
    </edge>
    <edge id=":J0_17" function="internal">
        <lane id=":J0_17_0" index="0" speed="13.68" length="43.47" shape="308.00,280.00 304.38,288.12 295.73,297.33 285.42,304.88 276.80,308.00"/>
        <lane id=":J0_17_1" index="1" speed="12.98" length="39.08" shape="304.80,280.00 301.68,287.60 294.13,295.72 284.92,302.17 276.80,304.80"/>
        <lane id=":J0_17_2" index="2" speed="12.26" length="34.71" shape="301.60,280.00 298.98,287.07 292.53,294.08 284.42,299.46 276.80,301.60"/>
    </edge>
    <edge id=":J0_20" function="internal">
        <lane id=":J0_20_0" index="0" speed="6.51" length="9.03" shape="276.80,285.60 279.25,285.25 281.00,284.20 282.05,282.45 282.40,280.00"/>
    </edge>
    <edge id=":J0_21" function="internal">
        <lane id=":J0_21_0" index="0" speed="13.89" length="49.60" shape="276.80,288.80 326.40,288.80"/>
        <lane id=":J0_21_1" index="1" speed="13.89" length="49.60" shape="276.80,292.00 326.40,292.00"/>
        <lane id=":J0_21_2" index="2" speed="13.89" length="49.60" shape="276.80,295.20 326.40,295.20"/>
    </edge>
    <edge id=":J0_24" function="internal">
        <lane id=":J0_24_0" index="0" speed="13.54" length="42.61" shape="276.80,298.40 287.65,300.15 295.40,305.40 300.05,314.15 301.60,326.40"/>
    </edge>
    <edge id=":J1_0" function="internal">
        <lane id=":J1_0_0" index="0" speed="3.65" length="4.67" shape="301.60,600.00 300.80,601.20 300.00,601.60 299.20,601.20 298.40,600.00"/>
    </edge>
    <edge id=":J2_0" function="internal">
        <lane id=":J2_0_0" index="0" speed="3.65" length="4.67" shape="600.00,298.40 601.20,299.20 601.60,300.00 601.20,300.80 600.00,301.60"/>
    </edge>
    <edge id=":J3_0" function="internal">
        <lane id=":J3_0_0" index="0" speed="3.65" length="4.67" shape="298.40,0.00 299.20,-1.20 300.00,-1.60 300.80,-1.20 301.60,0.00"/>
    </edge>
    <edge id=":J4_0" function="internal">
        <lane id=":J4_0_0" index="0" speed="3.65" length="4.67" shape="0.00,301.60 -1.20,300.80 -1.60,300.00 -1.20,299.20 0.00,298.40"/>
    </edge>

    <edge id="1I" from="J1" to="J0" priority="-1">
        <lane id="1I_0" index="0" speed="13.89" length="273.60" shape="282.40,600.00 282.40,326.40"/>
        <lane id="1I_1" index="1" speed="13.89" length="273.60" shape="285.60,600.00 285.60,326.40"/>
        <lane id="1I_2" index="2" speed="13.89" length="273.60" shape="288.80,600.00 288.80,326.40"/>
        <lane id="1I_3" index="3" speed="13.89" length="273.60" shape="292.00,600.00 292.00,326.40"/>
        <lane id="1I_4" index="4" speed="13.89" length="273.60" shape="295.20,600.00 295.20,326.40"/>
        <lane id="1I_5" index="5" speed="13.89" length="273.60" shape="298.40,600.00 298.40,326.40"/>
    </edge>
    <edge id="1O" from="J0" to="J1" priority="-1">
        <lane id="1O_0" index="0" speed="13.89" length="273.60" shape="320.80,326.40 320.80,600.00"/>
        <lane id="1O_1" index="1" speed="13.89" length="273.60" shape="317.60,326.40 317.60,600.00"/>
        <lane id="1O_2" index="2" speed="13.89" length="273.60" shape="314.40,326.40 314.40,600.00"/>
        <lane id="1O_3" index="3" speed="13.89" length="273.60" shape="311.20,326.40 311.20,600.00"/>
        <lane id="1O_4" index="4" speed="13.89" length="273.60" shape="308.00,326.40 308.00,600.00"/>
        <lane id="1O_5" index="5" speed="13.89" length="273.60" shape="304.80,326.40 304.80,600.00"/>
        <lane id="1O_6" index="6" speed="13.89" length="273.60" shape="301.60,326.40 301.60,600.00"/>
    </edge>
    <edge id="2I" from="J2" to="J0" priority="-1">
        <lane id="2I_0" index="0" speed="13.89" length="273.60" shape="600.00,320.80 326.40,320.80"/>
        <lane id="2I_1" index="1" speed="13.89" length="273.60" shape="600.00,317.60 326.40,317.60"/>
        <lane id="2I_2" index="2" speed="13.89" length="273.60" shape="600.00,314.40 326.40,314.40"/>
        <lane id="2I_3" index="3" speed="13.89" length="273.60" shape="600.00,311.20 326.40,311.20"/>
        <lane id="2I_4" index="4" speed="13.89" length="273.60" shape="600.00,308.00 326.40,308.00"/>
        <lane id="2I_5" index="5" speed="13.89" length="273.60" shape="600.00,304.80 326.40,304.80"/>
        <lane id="2I_6" index="6" speed="13.89" length="273.60" shape="600.00,301.60 326.40,301.60"/>
    </edge>
    <edge id="2O" from="J0" to="J2" priority="-1">
        <lane id="2O_0" index="0" speed="13.89" length="273.60" shape="326.40,285.60 600.00,285.60"/>
        <lane id="2O_1" index="1" speed="13.89" length="273.60" shape="326.40,288.80 600.00,288.80"/>
        <lane id="2O_2" index="2" speed="13.89" length="273.60" shape="326.40,292.00 600.00,292.00"/>
        <lane id="2O_3" index="3" speed="13.89" length="273.60" shape="326.40,295.20 600.00,295.20"/>
        <lane id="2O_4" index="4" speed="13.89" length="273.60" shape="326.40,298.40 600.00,298.40"/>
    </edge>
    <edge id="3I" from="J3" to="J0" priority="-1">
        <lane id="3I_0" index="0" speed="13.89" length="280.00" shape="320.80,0.00 320.80,280.00"/>
        <lane id="3I_1" index="1" speed="13.89" length="280.00" shape="317.60,0.00 317.60,280.00"/>
        <lane id="3I_2" index="2" speed="13.89" length="280.00" shape="314.40,0.00 314.40,280.00"/>
        <lane id="3I_3" index="3" speed="13.89" length="280.00" shape="311.20,0.00 311.20,280.00"/>
        <lane id="3I_4" index="4" speed="13.89" length="280.00" shape="308.00,0.00 308.00,280.00"/>
        <lane id="3I_5" index="5" speed="13.89" length="280.00" shape="304.80,0.00 304.80,280.00"/>
        <lane id="3I_6" index="6" speed="13.89" length="280.00" shape="301.60,0.00 301.60,280.00"/>
    </edge>
    <edge id="3O" from="J0" to="J3" priority="-1">
        <lane id="3O_0" index="0" speed="13.89" length="280.00" shape="282.40,280.00 282.40,0.00"/>
        <lane id="3O_1" index="1" speed="13.89" length="280.00" shape="285.60,280.00 285.60,0.00"/>
        <lane id="3O_2" index="2" speed="13.89" length="280.00" shape="288.80,280.00 288.80,0.00"/>
        <lane id="3O_3" index="3" speed="13.89" length="280.00" shape="292.00,280.00 292.00,0.00"/>
        <lane id="3O_4" index="4" speed="13.89" length="280.00" shape="295.20,280.00 295.20,0.00"/>
        <lane id="3O_5" index="5" speed="13.89" length="280.00" shape="298.40,280.00 298.40,0.00"/>
    </edge>
    <edge id="4I" from="J4" to="J0" priority="-1">
        <lane id="4I_0" index="0" speed="13.89" length="276.80" shape="0.00,285.60 276.80,285.60"/>
        <lane id="4I_1" index="1" speed="13.89" length="276.80" shape="0.00,288.80 276.80,288.80"/>
        <lane id="4I_2" index="2" speed="13.89" length="276.80" shape="0.00,292.00 276.80,292.00"/>
        <lane id="4I_3" index="3" speed="13.89" length="276.80" shape="0.00,295.20 276.80,295.20"/>
        <lane id="4I_4" index="4" speed="13.89" length="276.80" shape="0.00,298.40 276.80,298.40"/>
    </edge>
    <edge id="4O" from="J0" to="J4" priority="-1">
        <lane id="4O_0" index="0" speed="13.89" length="276.80" shape="276.80,320.80 0.00,320.80"/>
        <lane id="4O_1" index="1" speed="13.89" length="276.80" shape="276.80,317.60 0.00,317.60"/>
        <lane id="4O_2" index="2" speed="13.89" length="276.80" shape="276.80,314.40 0.00,314.40"/>
        <lane id="4O_3" index="3" speed="13.89" length="276.80" shape="276.80,311.20 0.00,311.20"/>
        <lane id="4O_4" index="4" speed="13.89" length="276.80" shape="276.80,308.00 0.00,308.00"/>
        <lane id="4O_5" index="5" speed="13.89" length="276.80" shape="276.80,304.80 0.00,304.80"/>
        <lane id="4O_6" index="6" speed="13.89" length="276.80" shape="276.80,301.60 0.00,301.60"/>
    </edge>

    <tlLogic id="J0" type="static" programID="0" offset="0">
        <phase duration="15" state="rrrGGGGGrrrrrrrrrGGGGrrrr"/>
        <phase duration="3"  state="rrrYYYYYrrrrrrrrrYYYYrrrr"/>
        <phase duration="15" state="GGGrrrrrrrrrrGGGGrrrrrrrr"/>
        <phase duration="3"  state="GYYrrrrrrrrrrGYYYrrrrrrrr"/>
        <phase duration="15" state="GrrrrrrrrrGGGGrrrrrrrrrrG"/>
        <phase duration="3"  state="YrrrrrrrrrYYYYrrrrrrrrrrY"/>
        <phase duration="15" state="rrrrrrGGGGrrrrrrrrrrGGGGr"/>
        <phase duration="3"  state="rrrrrrGGYYrrrrrrrrrrGYYYr"/>
    </tlLogic>

    <junction id="J0" type="traffic_light" x="300.00" y="300.00" incLanes="1I_0 1I_1 1I_2 1I_3 1I_4 1I_5 2I_0 2I_1 2I_2 2I_3 2I_4 2I_5 2I_6 3I_0 3I_1 3I_2 3I_3 3I_4 3I_5 3I_6 4I_0 4I_1 4I_2 4I_3 4I_4" intLanes=":J0_0_0 :J0_1_0 :J0_1_1 :J0_3_0 :J0_3_1 :J0_3_2 :J0_6_0 :J0_6_1 :J0_8_0 :J0_8_1 :J0_10_0 :J0_10_1 :J0_10_2 :J0_13_0 :J0_14_0 :J0_14_1 :J0_14_2 :J0_17_0 :J0_17_1 :J0_17_2 :J0_20_0 :J0_21_0 :J0_21_1 :J0_21_2 :J0_24_0" shape="280.80,326.40 322.40,326.40 322.84,324.18 323.40,323.40 324.18,322.84 325.18,322.51 326.40,322.40 326.40,284.00 324.18,283.56 323.40,283.00 322.84,282.22 322.51,281.22 322.40,280.00 280.80,280.00 280.36,282.22 279.80,283.00 279.02,283.56 278.02,283.89 276.80,284.00 276.80,322.40 279.02,322.84 279.80,323.40 280.36,324.18 280.69,325.18">
        <request index="0"  response="0000000000000000000000000" foes="0000000000000000000000000" cont="0"/>
        <request index="1"  response="0000000000000000000000000" foes="1111011100000001100000000" cont="0"/>
        <request index="2"  response="0000000000000000000000000" foes="1111011100000001100000000" cont="0"/>
        <request index="3"  response="0000000011100000000000000" foes="1111000011101111100000000" cont="0"/>
        <request index="4"  response="0000000011100000000000000" foes="1111000011101111100000000" cont="0"/>
        <request index="5"  response="0000000011100000000000000" foes="1111000011101111100000000" cont="0"/>
        <request index="6"  response="0000000011100000000000000" foes="0000000011100000000000000" cont="0"/>
        <request index="7"  response="0000000011100000000000000" foes="0000000011100000000000000" cont="0"/>
        <request index="8"  response="0000000011100000000111110" foes="1000000011100000000111110" cont="0"/>
        <request index="9"  response="0000000011100000000111110" foes="1000000011100000000111110" cont="0"/>
        <request index="10" response="0111011111100000000111000" foes="0111011111100000000111000" cont="0"/>
        <request index="11" response="0111011111100000000111000" foes="0111011111100000000111000" cont="0"/>
        <request index="12" response="0111011111100000000111000" foes="0111011111100000000111000" cont="0"/>
        <request index="13" response="0000000000000000000000000" foes="0000000000000000000000000" cont="0"/>
        <request index="14" response="0000000000000000000000000" foes="0111000000001111111111000" cont="0"/>
        <request index="15" response="0000000000000000000000000" foes="0111000000001111111111000" cont="0"/>
        <request index="16" response="0000000000000000000000000" foes="0111000000001111111111000" cont="0"/>
        <request index="17" response="0000000000000000000000110" foes="1111000000001110000000110" cont="0"/>
        <request index="18" response="0000000000000000000000110" foes="1111000000001110000000110" cont="0"/>
        <request index="19" response="0000000000000000000000110" foes="1111000000001110000000110" cont="0"/>
        <request index="20" response="0000000000000000000000000" foes="0000000000000000000000000" cont="0"/>
        <request index="21" response="0000011111100000000111110" foes="0000011111101110000111110" cont="0"/>
        <request index="22" response="0000011111100000000111110" foes="0000011111101110000111110" cont="0"/>
        <request index="23" response="0000011111100000000111110" foes="0000011111101110000111110" cont="0"/>
        <request index="24" response="0000011100000001100111110" foes="0000011100000001100111110" cont="0"/>
    </junction>
    <junction id="J1" type="priority" x="300.00" y="600.00" incLanes="1O_0 1O_1 1O_2 1O_3 1O_4 1O_5 1O_6" intLanes=":J1_0_0" shape="300.00,600.00 322.40,600.00 300.00,600.00">
        <request index="0" response="0" foes="0" cont="0"/>
    </junction>
    <junction id="J2" type="priority" x="600.00" y="300.00" incLanes="2O_0 2O_1 2O_2 2O_3 2O_4" intLanes=":J2_0_0" shape="600.00,300.00 600.00,284.00 600.00,300.00">
        <request index="0" response="0" foes="0" cont="0"/>
    </junction>
    <junction id="J3" type="priority" x="300.00" y="0.00" incLanes="3O_0 3O_1 3O_2 3O_3 3O_4 3O_5" intLanes=":J3_0_0" shape="300.00,0.00 280.80,0.00 300.00,0.00">
        <request index="0" response="0" foes="0" cont="0"/>
    </junction>
    <junction id="J4" type="priority" x="0.00" y="300.00" incLanes="4O_0 4O_1 4O_2 4O_3 4O_4 4O_5 4O_6" intLanes=":J4_0_0" shape="0.00,300.00 0.00,322.40 0.00,300.00">
        <request index="0" response="0" foes="0" cont="0"/>
    </junction>

    <connection from="1I" to="4O" fromLane="0" toLane="0" contPos="0.00" via=":J0_0_0" tl="J0" linkIndex="0" dir="r" state="O"/>
    <connection from="1I" to="3O" fromLane="1" toLane="1" contPos="0.00" via=":J0_1_0" tl="J0" linkIndex="1" dir="s" state="O"/>
    <connection from="1I" to="3O" fromLane="2" toLane="2" contPos="0.00" via=":J0_1_1" tl="J0" linkIndex="2" dir="s" state="O"/>
    <connection from="1I" to="2O" fromLane="3" toLane="2" contPos="0.00" via=":J0_3_0" tl="J0" linkIndex="3" dir="l" state="o"/>
    <connection from="1I" to="2O" fromLane="4" toLane="3" contPos="0.00" via=":J0_3_1" tl="J0" linkIndex="4" dir="l" state="o"/>
    <connection from="1I" to="2O" fromLane="5" toLane="4" contPos="0.00" via=":J0_3_2" tl="J0" linkIndex="5" dir="l" state="o"/>
    <connection from="1O" to="1I" fromLane="6" toLane="5" via=":J1_0_0" dir="t" state="M"/>
    <connection from="2I" to="1O" fromLane="0" toLane="0" contPos="0.00" via=":J0_6_0" tl="J0" linkIndex="6" dir="r" state="o"/>
    <connection from="2I" to="1O" fromLane="1" toLane="1" contPos="0.00" via=":J0_6_1" tl="J0" linkIndex="7" dir="r" state="o"/>
    <connection from="2I" to="4O" fromLane="2" toLane="2" contPos="0.00" via=":J0_8_0" tl="J0" linkIndex="8" dir="s" state="o"/>
    <connection from="2I" to="4O" fromLane="3" toLane="3" contPos="0.00" via=":J0_8_1" tl="J0" linkIndex="9" dir="s" state="o"/>
    <connection from="2I" to="3O" fromLane="4" toLane="3" contPos="0.00" via=":J0_10_0" tl="J0" linkIndex="10" dir="l" state="o"/>
    <connection from="2I" to="3O" fromLane="5" toLane="4" contPos="0.00" via=":J0_10_1" tl="J0" linkIndex="11" dir="l" state="o"/>
    <connection from="2I" to="3O" fromLane="6" toLane="5" contPos="0.00" via=":J0_10_2" tl="J0" linkIndex="12" dir="l" state="o"/>
    <connection from="2O" to="2I" fromLane="4" toLane="6" via=":J2_0_0" dir="t" state="M"/>
    <connection from="3I" to="2O" fromLane="0" toLane="0" contPos="0.00" via=":J0_13_0" tl="J0" linkIndex="13" dir="r" state="O"/>
    <connection from="3I" to="1O" fromLane="1" toLane="1" contPos="0.00" via=":J0_14_0" tl="J0" linkIndex="14" dir="s" state="O"/>
    <connection from="3I" to="1O" fromLane="2" toLane="2" contPos="0.00" via=":J0_14_1" tl="J0" linkIndex="15" dir="s" state="O"/>
    <connection from="3I" to="1O" fromLane="3" toLane="3" contPos="0.00" via=":J0_14_2" tl="J0" linkIndex="16" dir="s" state="O"/>
    <connection from="3I" to="4O" fromLane="4" toLane="4" contPos="0.00" via=":J0_17_0" tl="J0" linkIndex="17" dir="l" state="o"/>
    <connection from="3I" to="4O" fromLane="5" toLane="5" contPos="0.00" via=":J0_17_1" tl="J0" linkIndex="18" dir="l" state="o"/>
    <connection from="3I" to="4O" fromLane="6" toLane="6" contPos="0.00" via=":J0_17_2" tl="J0" linkIndex="19" dir="l" state="o"/>
    <connection from="3O" to="3I" fromLane="5" toLane="6" via=":J3_0_0" dir="t" state="M"/>
    <connection from="4I" to="3O" fromLane="0" toLane="0" contPos="0.00" via=":J0_20_0" tl="J0" linkIndex="20" dir="r" state="O"/>
    <connection from="4I" to="2O" fromLane="1" toLane="1" contPos="0.00" via=":J0_21_0" tl="J0" linkIndex="21" dir="s" state="o"/>
    <connection from="4I" to="2O" fromLane="2" toLane="2" contPos="0.00" via=":J0_21_1" tl="J0" linkIndex="22" dir="s" state="o"/>
    <connection from="4I" to="2O" fromLane="3" toLane="3" contPos="0.00" via=":J0_21_2" tl="J0" linkIndex="23" dir="s" state="o"/>
    <connection from="4I" to="1O" fromLane="4" toLane="6" contPos="0.00" via=":J0_24_0" tl="J0" linkIndex="24" dir="l" state="o"/>
    <connection from="4O" to="4I" fromLane="6" toLane="4" via=":J4_0_0" dir="t" state="M"/>

    <connection from=":J0_0" to="4O" fromLane="0" toLane="0" dir="r" state="M"/>
    <connection from=":J0_1" to="3O" fromLane="0" toLane="1" dir="s" state="M"/>
    <connection from=":J0_1" to="3O" fromLane="1" toLane="2" dir="s" state="M"/>
    <connection from=":J0_3" to="2O" fromLane="0" toLane="2" dir="l" state="M"/>
    <connection from=":J0_3" to="2O" fromLane="1" toLane="3" dir="l" state="M"/>
    <connection from=":J0_3" to="2O" fromLane="2" toLane="4" dir="l" state="M"/>
    <connection from=":J0_6" to="1O" fromLane="0" toLane="0" dir="r" state="M"/>
    <connection from=":J0_6" to="1O" fromLane="1" toLane="1" dir="r" state="M"/>
    <connection from=":J0_8" to="4O" fromLane="0" toLane="2" dir="s" state="M"/>
    <connection from=":J0_8" to="4O" fromLane="1" toLane="3" dir="s" state="M"/>
    <connection from=":J0_10" to="3O" fromLane="0" toLane="3" dir="l" state="M"/>
    <connection from=":J0_10" to="3O" fromLane="1" toLane="4" dir="l" state="M"/>
    <connection from=":J0_10" to="3O" fromLane="2" toLane="5" dir="l" state="M"/>
    <connection from=":J0_13" to="2O" fromLane="0" toLane="0" dir="r" state="M"/>
    <connection from=":J0_14" to="1O" fromLane="0" toLane="1" dir="s" state="M"/>
    <connection from=":J0_14" to="1O" fromLane="1" toLane="2" dir="s" state="M"/>
    <connection from=":J0_14" to="1O" fromLane="2" toLane="3" dir="s" state="M"/>
    <connection from=":J0_17" to="4O" fromLane="0" toLane="4" dir="l" state="M"/>
    <connection from=":J0_17" to="4O" fromLane="1" toLane="5" dir="l" state="M"/>
    <connection from=":J0_17" to="4O" fromLane="2" toLane="6" dir="l" state="M"/>
    <connection from=":J0_20" to="3O" fromLane="0" toLane="0" dir="r" state="M"/>
    <connection from=":J0_21" to="2O" fromLane="0" toLane="1" dir="s" state="M"/>
    <connection from=":J0_21" to="2O" fromLane="1" toLane="2" dir="s" state="M"/>
    <connection from=":J0_21" to="2O" fromLane="2" toLane="3" dir="s" state="M"/>
    <connection from=":J0_24" to="1O" fromLane="0" toLane="6" dir="l" state="M"/>
    <connection from=":J1_0" to="1I" fromLane="0" toLane="5" dir="t" state="M"/>
    <connection from=":J2_0" to="2I" fromLane="0" toLane="6" dir="t" state="M"/>
    <connection from=":J3_0" to="3I" fromLane="0" toLane="6" dir="t" state="M"/>
    <connection from=":J4_0" to="4I" fromLane="0" toLane="4" dir="t" state="M"/>

</net>
