<?xml version="1.0" encoding="UTF-8"?>

<!-- generated on 2022-04-07 14:05:46 by Eclipse SUMO netconvert Version 1.9.2
<configuration xmlns:xsi="http://www.w3.org/2001/XMLSchema-instance" xsi:noNamespaceSchemaLocation="http://sumo.dlr.de/xsd/netconvertConfiguration.xsd">

    <input>
        <node-files value="network/inputs/input.nod.xml"/>
        <edge-files value="network/inputs/input_5_3_7_5.edg.xml"/>
        <connection-files value="network/inputs/input_rssll_rsl_rrssssl_rrsll.con.xml"/>
        <tllogic-files value="network/inputs/input_rssll_rsl_rrssssl_rrsll.tll.xml"/>
    </input>

    <output>
        <output-file value="network/rssll_rsl_rrssssl_rrsll.net.xml"/>
    </output>

    <report>
        <no-warnings value="true"/>
        <aggregate-warnings value="5"/>
        <log value="network/log/rssll_rsl_rrssssl_rrsll.log.xml"/>
    </report>

</configuration>
-->

<net version="1.9" junctionCornerDetail="5" limitTurnSpeed="5.50" xmlns:xsi="http://www.w3.org/2001/XMLSchema-instance" xsi:noNamespaceSchemaLocation="http://sumo.dlr.de/xsd/net_file.xsd">

    <location netOffset="300.00,300.00" convBoundary="0.00,0.00,600.00,600.00" origBoundary="-300.00,-300.00,300.00,300.00" projParameter="!"/>

    <edge id=":J0_0" function="internal">
        <lane id=":J0_0_0" index="0" speed="6.51" length="9.03" shape="285.60,313.60 285.25,311.15 284.20,309.40 282.45,308.35 280.00,308.00"/>
    </edge>
    <edge id=":J0_1" function="internal">
        <lane id=":J0_1_0" index="0" speed="13.89" length="33.60" shape="288.80,313.60 288.80,280.00"/>
        <lane id=":J0_1_1" index="1" speed="13.89" length="33.60" shape="292.00,313.60 292.00,280.00"/>
    </edge>
    <edge id=":J0_3" function="internal">
        <lane id=":J0_3_0" index="0" speed="13.22" length="40.53" shape="295.20,313.60 297.15,305.55 303.00,299.80 312.75,296.35 326.40,295.20"/>
        <lane id=":J0_3_1" index="1" speed="12.38" length="35.45" shape="298.40,313.60 300.15,306.95 305.40,302.20 314.15,299.35 326.40,298.40"/>
    </edge>
    <edge id=":J0_5" function="internal">
        <lane id=":J0_5_0" index="0" speed="6.51" length="9.03" shape="326.40,308.00 323.95,308.35 322.20,309.40 321.15,311.15 320.80,313.60"/>
    </edge>
    <edge id=":J0_6" function="internal">
        <lane id=":J0_6_0" index="0" speed="13.89" length="46.40" shape="326.40,304.80 280.00,304.80"/>
    </edge>
    <edge id=":J0_7" function="internal">
        <lane id=":J0_7_0" index="0" speed="13.15" length="40.13" shape="326.40,301.60 314.15,300.25 305.40,296.20 300.15,289.45 298.40,280.00"/>
    </edge>
    <edge id=":J0_8" function="internal">
        <lane id=":J0_8_0" index="0" speed="6.51" length="9.03" shape="320.80,280.00 321.15,282.45 322.20,284.20 323.95,285.25 326.40,285.60"/>
        <lane id=":J0_8_1" index="1" speed="8.00" length="14.19" shape="317.60,280.00 318.15,283.85 319.80,286.60 322.55,288.25 326.40,288.80"/>
    </edge>
    <edge id=":J0_10" function="internal">
        <lane id=":J0_10_0" index="0" speed="13.89" length="33.60" shape="314.40,280.00 314.40,313.60"/>
        <lane id=":J0_10_1" index="1" speed="13.89" length="33.60" shape="311.20,280.00 311.20,313.60"/>
        <lane id=":J0_10_2" index="2" speed="13.89" length="33.60" shape="308.00,280.00 308.00,313.60"/>
        <lane id=":J0_10_3" index="3" speed="13.89" length="33.60" shape="304.80,280.00 304.80,313.60"/>
    </edge>
    <edge id=":J0_14" function="internal">
        <lane id=":J0_14_0" index="0" speed="12.28" length="34.84" shape="301.60,280.00 300.25,289.45 296.20,296.20 289.45,300.25 280.00,301.60"/>
    </edge>
    <edge id=":J0_15" function="internal">
        <lane id=":J0_15_0" index="0" speed="6.51" length="9.03" shape="280.00,285.60 282.45,285.25 284.20,284.20 285.25,282.45 285.60,280.00"/>
        <lane id=":J0_15_1" index="1" speed="8.00" length="14.19" shape="280.00,288.80 283.85,288.25 286.60,286.60 288.25,283.85 288.80,280.00"/>
    </edge>
    <edge id=":J0_17" function="internal">
        <lane id=":J0_17_0" index="0" speed="13.89" length="46.40" shape="280.00,292.00 326.40,292.00"/>
    </edge>
    <edge id=":J0_18" function="internal">
        <lane id=":J0_18_0" index="0" speed="12.30" length="34.99" shape="280.00,295.20 290.85,296.35 298.60,299.80 303.25,305.55 304.80,313.60"/>
        <lane id=":J0_18_1" index="1" speed="11.39" length="29.85" shape="280.00,298.40 289.45,299.35 296.20,302.20 300.25,306.95 301.60,313.60"/>
    </edge>
    <edge id=":J1_0" function="internal">
        <lane id=":J1_0_0" index="0" speed="3.65" length="4.67" shape="301.60,600.00 300.80,601.20 300.00,601.60 299.20,601.20 298.40,600.00"/>
    </edge>
    <edge id=":J2_0" function="internal">
        <lane id=":J2_0_0" index="0" speed="3.65" length="4.67" shape="600.00,298.40 601.20,299.20 601.60,300.00 601.20,300.80 600.00,301.60"/>
    </edge>
    <edge id=":J3_0" function="internal">
        <lane id=":J3_0_0" index="0" speed="3.65" length="4.67" shape="298.40,0.00 299.20,-1.20 300.00,-1.60 300.80,-1.20 301.60,0.00"/>
    </edge>
    <edge id=":J4_0" function="internal">
        <lane id=":J4_0_0" index="0" speed="3.65" length="4.67" shape="0.00,301.60 -1.20,300.80 -1.60,300.00 -1.20,299.20 0.00,298.40"/>
    </edge>

    <edge id="1I" from="J1" to="J0" priority="-1">
        <lane id="1I_0" index="0" speed="13.89" length="286.40" shape="285.60,600.00 285.60,313.60"/>
        <lane id="1I_1" index="1" speed="13.89" length="286.40" shape="288.80,600.00 288.80,313.60"/>
        <lane id="1I_2" index="2" speed="13.89" length="286.40" shape="292.00,600.00 292.00,313.60"/>
        <lane id="1I_3" index="3" speed="13.89" length="286.40" shape="295.20,600.00 295.20,313.60"/>
        <lane id="1I_4" index="4" speed="13.89" length="286.40" shape="298.40,600.00 298.40,313.60"/>
    </edge>
    <edge id="1O" from="J0" to="J1" priority="-1">
        <lane id="1O_0" index="0" speed="13.89" length="286.40" shape="320.80,313.60 320.80,600.00"/>
        <lane id="1O_1" index="1" speed="13.89" length="286.40" shape="317.60,313.60 317.60,600.00"/>
        <lane id="1O_2" index="2" speed="13.89" length="286.40" shape="314.40,313.60 314.40,600.00"/>
        <lane id="1O_3" index="3" speed="13.89" length="286.40" shape="311.20,313.60 311.20,600.00"/>
        <lane id="1O_4" index="4" speed="13.89" length="286.40" shape="308.00,313.60 308.00,600.00"/>
        <lane id="1O_5" index="5" speed="13.89" length="286.40" shape="304.80,313.60 304.80,600.00"/>
        <lane id="1O_6" index="6" speed="13.89" length="286.40" shape="301.60,313.60 301.60,600.00"/>
    </edge>
    <edge id="2I" from="J2" to="J0" priority="-1">
        <lane id="2I_0" index="0" speed="13.89" length="273.60" shape="600.00,308.00 326.40,308.00"/>
        <lane id="2I_1" index="1" speed="13.89" length="273.60" shape="600.00,304.80 326.40,304.80"/>
        <lane id="2I_2" index="2" speed="13.89" length="273.60" shape="600.00,301.60 326.40,301.60"/>
    </edge>
    <edge id="2O" from="J0" to="J2" priority="-1">
        <lane id="2O_0" index="0" speed="13.89" length="273.60" shape="326.40,285.60 600.00,285.60"/>
        <lane id="2O_1" index="1" speed="13.89" length="273.60" shape="326.40,288.80 600.00,288.80"/>
        <lane id="2O_2" index="2" speed="13.89" length="273.60" shape="326.40,292.00 600.00,292.00"/>
        <lane id="2O_3" index="3" speed="13.89" length="273.60" shape="326.40,295.20 600.00,295.20"/>
        <lane id="2O_4" index="4" speed="13.89" length="273.60" shape="326.40,298.40 600.00,298.40"/>
    </edge>
    <edge id="3I" from="J3" to="J0" priority="-1">
        <lane id="3I_0" index="0" speed="13.89" length="280.00" shape="320.80,0.00 320.80,280.00"/>
        <lane id="3I_1" index="1" speed="13.89" length="280.00" shape="317.60,0.00 317.60,280.00"/>
        <lane id="3I_2" index="2" speed="13.89" length="280.00" shape="314.40,0.00 314.40,280.00"/>
        <lane id="3I_3" index="3" speed="13.89" length="280.00" shape="311.20,0.00 311.20,280.00"/>
        <lane id="3I_4" index="4" speed="13.89" length="280.00" shape="308.00,0.00 308.00,280.00"/>
        <lane id="3I_5" index="5" speed="13.89" length="280.00" shape="304.80,0.00 304.80,280.00"/>
        <lane id="3I_6" index="6" speed="13.89" length="280.00" shape="301.60,0.00 301.60,280.00"/>
    </edge>
    <edge id="3O" from="J0" to="J3" priority="-1">
        <lane id="3O_0" index="0" speed="13.89" length="280.00" shape="285.60,280.00 285.60,0.00"/>
        <lane id="3O_1" index="1" speed="13.89" length="280.00" shape="288.80,280.00 288.80,0.00"/>
        <lane id="3O_2" index="2" speed="13.89" length="280.00" shape="292.00,280.00 292.00,0.00"/>
        <lane id="3O_3" index="3" speed="13.89" length="280.00" shape="295.20,280.00 295.20,0.00"/>
        <lane id="3O_4" index="4" speed="13.89" length="280.00" shape="298.40,280.00 298.40,0.00"/>
    </edge>
    <edge id="4I" from="J4" to="J0" priority="-1">
        <lane id="4I_0" index="0" speed="13.89" length="280.00" shape="0.00,285.60 280.00,285.60"/>
        <lane id="4I_1" index="1" speed="13.89" length="280.00" shape="0.00,288.80 280.00,288.80"/>
        <lane id="4I_2" index="2" speed="13.89" length="280.00" shape="0.00,292.00 280.00,292.00"/>
        <lane id="4I_3" index="3" speed="13.89" length="280.00" shape="0.00,295.20 280.00,295.20"/>
        <lane id="4I_4" index="4" speed="13.89" length="280.00" shape="0.00,298.40 280.00,298.40"/>
    </edge>
    <edge id="4O" from="J0" to="J4" priority="-1">
        <lane id="4O_0" index="0" speed="13.89" length="280.00" shape="280.00,308.00 0.00,308.00"/>
        <lane id="4O_1" index="1" speed="13.89" length="280.00" shape="280.00,304.80 0.00,304.80"/>
        <lane id="4O_2" index="2" speed="13.89" length="280.00" shape="280.00,301.60 0.00,301.60"/>
    </edge>

    <tlLogic id="J0" type="static" programID="0" offset="0">
        <phase duration="15" state="rrrGGGrrrrrrrrGGGrrr"/>
        <phase duration="3"  state="rrrYYYrrrrrrrrYYYrrr"/>
        <phase duration="15" state="GGGrrrrrGGGGGGrrrrrr"/>
        <phase duration="3"  state="GYYrrrrrGGYYYYrrrrrr"/>
        <phase duration="15" state="GrrrrrrGGGrrrrrrrrGG"/>
        <phase duration="3"  state="YrrrrrrYYYrrrrrrrrYY"/>
        <phase duration="15" state="rrrrrGGrrrrrrrrGGGrr"/>
        <phase duration="3"  state="rrrrrGYrrrrrrrrGGYrr"/>
    </tlLogic>

    <junction id="J0" type="traffic_light" x="300.00" y="300.00" incLanes="1I_0 1I_1 1I_2 1I_3 1I_4 2I_0 2I_1 2I_2 3I_0 3I_1 3I_2 3I_3 3I_4 3I_5 3I_6 4I_0 4I_1 4I_2 4I_3 4I_4" intLanes=":J0_0_0 :J0_1_0 :J0_1_1 :J0_3_0 :J0_3_1 :J0_5_0 :J0_6_0 :J0_7_0 :J0_8_0 :J0_8_1 :J0_10_0 :J0_10_1 :J0_10_2 :J0_10_3 :J0_14_0 :J0_15_0 :J0_15_1 :J0_17_0 :J0_18_0 :J0_18_1" shape="284.00,313.60 322.40,313.60 322.84,311.38 323.40,310.60 324.18,310.04 325.18,309.71 326.40,309.60 326.40,284.00 324.18,283.56 323.40,283.00 322.84,282.22 322.51,281.22 322.40,280.00 284.00,280.00 283.56,282.22 283.00,283.00 282.22,283.56 281.22,283.89 280.00,284.00 280.00,309.60 282.22,310.04 283.00,310.60 283.56,311.38 283.89,312.38">
        <request index="0"  response="00000000000000000000" foes="00000000000000000000" cont="0"/>
        <request index="1"  response="00000000000000000000" foes="11111100000001000000" cont="0"/>
        <request index="2"  response="00000000000000000000" foes="11111100000001000000" cont="0"/>
        <request index="3"  response="00000011110000000000" foes="11000011110011000000" cont="0"/>
        <request index="4"  response="00000011110000000000" foes="11000011110011000000" cont="0"/>
        <request index="5"  response="00000000000000000000" foes="00000000000000000000" cont="0"/>
        <request index="6"  response="00000011110000011110" foes="11000011110000011110" cont="0"/>
        <request index="7"  response="00100111110000011000" foes="00100111110000011000" cont="0"/>
        <request index="8"  response="00000000000000000000" foes="00000000000000000000" cont="0"/>
        <request index="9"  response="00000000000000000000" foes="00000000000000000000" cont="0"/>
        <request index="10" response="00000000000000000000" foes="11100000000011011000" cont="0"/>
        <request index="11" response="00000000000000000000" foes="11100000000011011000" cont="0"/>
        <request index="12" response="00000000000000000000" foes="11100000000011011000" cont="0"/>
        <request index="13" response="00000000000000000000" foes="11100000000011011000" cont="0"/>
        <request index="14" response="00000000000000000110" foes="11100000000010000110" cont="0"/>
        <request index="15" response="00000000000000000110" foes="00000000000000000110" cont="0"/>
        <request index="16" response="00000000000000000110" foes="00000000000000000110" cont="0"/>
        <request index="17" response="00000111110000000110" foes="00000111110010000110" cont="0"/>
        <request index="18" response="00000111110001011110" foes="00000111110001011110" cont="0"/>
        <request index="19" response="00000111110001011110" foes="00000111110001011110" cont="0"/>
    </junction>
    <junction id="J1" type="priority" x="300.00" y="600.00" incLanes="1O_0 1O_1 1O_2 1O_3 1O_4 1O_5 1O_6" intLanes=":J1_0_0" shape="300.00,600.00 322.40,600.00 300.00,600.00">
        <request index="0" response="0" foes="0" cont="0"/>
    </junction>
    <junction id="J2" type="priority" x="600.00" y="300.00" incLanes="2O_0 2O_1 2O_2 2O_3 2O_4" intLanes=":J2_0_0" shape="600.00,300.00 600.00,284.00 600.00,300.00">
        <request index="0" response="0" foes="0" cont="0"/>
    </junction>
    <junction id="J3" type="priority" x="300.00" y="0.00" incLanes="3O_0 3O_1 3O_2 3O_3 3O_4" intLanes=":J3_0_0" shape="300.00,0.00 284.00,0.00 300.00,0.00">
        <request index="0" response="0" foes="0" cont="0"/>
    </junction>
    <junction id="J4" type="priority" x="0.00" y="300.00" incLanes="4O_0 4O_1 4O_2" intLanes=":J4_0_0" shape="0.00,300.00 0.00,309.60 0.00,300.00">
        <request index="0" response="0" foes="0" cont="0"/>
    </junction>

    <connection from="1I" to="4O" fromLane="0" toLane="0" contPos="0.00" via=":J0_0_0" tl="J0" linkIndex="0" dir="r" state="O"/>
    <connection from="1I" to="3O" fromLane="1" toLane="1" contPos="0.00" via=":J0_1_0" tl="J0" linkIndex="1" dir="s" state="O"/>
    <connection from="1I" to="3O" fromLane="2" toLane="2" contPos="0.00" via=":J0_1_1" tl="J0" linkIndex="2" dir="s" state="O"/>
    <connection from="1I" to="2O" fromLane="3" toLane="3" contPos="0.00" via=":J0_3_0" tl="J0" linkIndex="3" dir="l" state="o"/>
    <connection from="1I" to="2O" fromLane="4" toLane="4" contPos="0.00" via=":J0_3_1" tl="J0" linkIndex="4" dir="l" state="o"/>
    <connection from="1O" to="1I" fromLane="6" toLane="4" via=":J1_0_0" dir="t" state="M"/>
    <connection from="2I" to="1O" fromLane="0" toLane="0" contPos="0.00" via=":J0_5_0" tl="J0" linkIndex="5" dir="r" state="O"/>
    <connection from="2I" to="4O" fromLane="1" toLane="1" contPos="0.00" via=":J0_6_0" tl="J0" linkIndex="6" dir="s" state="o"/>
    <connection from="2I" to="3O" fromLane="2" toLane="4" contPos="0.00" via=":J0_7_0" tl="J0" linkIndex="7" dir="l" state="o"/>
    <connection from="2O" to="2I" fromLane="4" toLane="2" via=":J2_0_0" dir="t" state="M"/>
    <connection from="3I" to="2O" fromLane="0" toLane="0" contPos="0.00" via=":J0_8_0" tl="J0" linkIndex="8" dir="r" state="O"/>
    <connection from="3I" to="2O" fromLane="1" toLane="1" contPos="0.00" via=":J0_8_1" tl="J0" linkIndex="9" dir="r" state="O"/>
    <connection from="3I" to="1O" fromLane="2" toLane="2" contPos="0.00" via=":J0_10_0" tl="J0" linkIndex="10" dir="s" state="O"/>
    <connection from="3I" to="1O" fromLane="3" toLane="3" contPos="0.00" via=":J0_10_1" tl="J0" linkIndex="11" dir="s" state="O"/>
    <connection from="3I" to="1O" fromLane="4" toLane="4" contPos="0.00" via=":J0_10_2" tl="J0" linkIndex="12" dir="s" state="O"/>
    <connection from="3I" to="1O" fromLane="5" toLane="5" contPos="0.00" via=":J0_10_3" tl="J0" linkIndex="13" dir="s" state="O"/>
    <connection from="3I" to="4O" fromLane="6" toLane="2" contPos="0.00" via=":J0_14_0" tl="J0" linkIndex="14" dir="l" state="o"/>
    <connection from="3O" to="3I" fromLane="4" toLane="6" via=":J3_0_0" dir="t" state="M"/>
    <connection from="4I" to="3O" fromLane="0" toLane="0" contPos="0.00" via=":J0_15_0" tl="J0" linkIndex="15" dir="r" state="o"/>
    <connection from="4I" to="3O" fromLane="1" toLane="1" contPos="0.00" via=":J0_15_1" tl="J0" linkIndex="16" dir="r" state="o"/>
    <connection from="4I" to="2O" fromLane="2" toLane="2" contPos="0.00" via=":J0_17_0" tl="J0" linkIndex="17" dir="s" state="o"/>
    <connection from="4I" to="1O" fromLane="3" toLane="5" contPos="0.00" via=":J0_18_0" tl="J0" linkIndex="18" dir="l" state="o"/>
    <connection from="4I" to="1O" fromLane="4" toLane="6" contPos="0.00" via=":J0_18_1" tl="J0" linkIndex="19" dir="l" state="o"/>
    <connection from="4O" to="4I" fromLane="2" toLane="4" via=":J4_0_0" dir="t" state="M"/>

    <connection from=":J0_0" to="4O" fromLane="0" toLane="0" dir="r" state="M"/>
    <connection from=":J0_1" to="3O" fromLane="0" toLane="1" dir="s" state="M"/>
    <connection from=":J0_1" to="3O" fromLane="1" toLane="2" dir="s" state="M"/>
    <connection from=":J0_3" to="2O" fromLane="0" toLane="3" dir="l" state="M"/>
    <connection from=":J0_3" to="2O" fromLane="1" toLane="4" dir="l" state="M"/>
    <connection from=":J0_5" to="1O" fromLane="0" toLane="0" dir="r" state="M"/>
    <connection from=":J0_6" to="4O" fromLane="0" toLane="1" dir="s" state="M"/>
    <connection from=":J0_7" to="3O" fromLane="0" toLane="4" dir="l" state="M"/>
    <connection from=":J0_8" to="2O" fromLane="0" toLane="0" dir="r" state="M"/>
    <connection from=":J0_8" to="2O" fromLane="1" toLane="1" dir="r" state="M"/>
    <connection from=":J0_10" to="1O" fromLane="0" toLane="2" dir="s" state="M"/>
    <connection from=":J0_10" to="1O" fromLane="1" toLane="3" dir="s" state="M"/>
    <connection from=":J0_10" to="1O" fromLane="2" toLane="4" dir="s" state="M"/>
    <connection from=":J0_10" to="1O" fromLane="3" toLane="5" dir="s" state="M"/>
    <connection from=":J0_14" to="4O" fromLane="0" toLane="2" dir="l" state="M"/>
    <connection from=":J0_15" to="3O" fromLane="0" toLane="0" dir="r" state="M"/>
    <connection from=":J0_15" to="3O" fromLane="1" toLane="1" dir="r" state="M"/>
    <connection from=":J0_17" to="2O" fromLane="0" toLane="2" dir="s" state="M"/>
    <connection from=":J0_18" to="1O" fromLane="0" toLane="5" dir="l" state="M"/>
    <connection from=":J0_18" to="1O" fromLane="1" toLane="6" dir="l" state="M"/>
    <connection from=":J1_0" to="1I" fromLane="0" toLane="4" dir="t" state="M"/>
    <connection from=":J2_0" to="2I" fromLane="0" toLane="2" dir="t" state="M"/>
    <connection from=":J3_0" to="3I" fromLane="0" toLane="6" dir="t" state="M"/>
    <connection from=":J4_0" to="4I" fromLane="0" toLane="4" dir="t" state="M"/>

</net>
