<?xml version="1.0" encoding="UTF-8"?>

<!-- generated on 2022-04-07 14:05:30 by Eclipse SUMO netconvert Version 1.9.2
<configuration xmlns:xsi="http://www.w3.org/2001/XMLSchema-instance" xsi:noNamespaceSchemaLocation="http://sumo.dlr.de/xsd/netconvertConfiguration.xsd">

    <input>
        <node-files value="network/inputs/input.nod.xml"/>
        <edge-files value="network/inputs/input_4_5_7_7.edg.xml"/>
        <connection-files value="network/inputs/input_rssl_rrsll_rrsssll_rrsslll.con.xml"/>
        <tllogic-files value="network/inputs/input_rssl_rrsll_rrsssll_rrsslll.tll.xml"/>
    </input>

    <output>
        <output-file value="network/rssl_rrsll_rrsssll_rrsslll.net.xml"/>
    </output>

    <report>
        <no-warnings value="true"/>
        <aggregate-warnings value="5"/>
        <log value="network/log/rssl_rrsll_rrsssll_rrsslll.log.xml"/>
    </report>

</configuration>
-->

<net version="1.9" junctionCornerDetail="5" limitTurnSpeed="5.50" xmlns:xsi="http://www.w3.org/2001/XMLSchema-instance" xsi:noNamespaceSchemaLocation="http://sumo.dlr.de/xsd/net_file.xsd">

    <location netOffset="300.00,300.00" convBoundary="0.00,0.00,600.00,600.00" origBoundary="-300.00,-300.00,300.00,300.00" projParameter="!"/>

    <edge id=":J0_0" function="internal">
        <lane id=":J0_0_0" index="0" speed="6.51" length="9.03" shape="288.80,320.00 288.45,317.55 287.40,315.80 285.65,314.75 283.20,314.40"/>
    </edge>
    <edge id=":J0_1" function="internal">
        <lane id=":J0_1_0" index="0" speed="13.89" length="46.40" shape="292.00,320.00 292.00,273.60"/>
        <lane id=":J0_1_1" index="1" speed="13.89" length="46.40" shape="295.20,320.00 295.20,273.60"/>
    </edge>
    <edge id=":J0_3" function="internal">
        <lane id=":J0_3_0" index="0" speed="13.15" length="40.13" shape="298.40,320.00 300.15,310.55 305.40,303.80 314.15,299.75 326.40,298.40"/>
    </edge>
    <edge id=":J0_4" function="internal">
        <lane id=":J0_4_0" index="0" speed="6.51" length="9.03" shape="326.40,314.40 323.95,314.75 322.20,315.80 321.15,317.55 320.80,320.00"/>
        <lane id=":J0_4_1" index="1" speed="8.00" length="14.19" shape="326.40,311.20 322.55,311.75 319.80,313.40 318.15,316.15 317.60,320.00"/>
    </edge>
    <edge id=":J0_6" function="internal">
        <lane id=":J0_6_0" index="0" speed="13.89" length="43.20" shape="326.40,308.00 283.20,308.00"/>
    </edge>
    <edge id=":J0_7" function="internal">
        <lane id=":J0_7_0" index="0" speed="13.89" length="50.32" shape="326.40,304.80 312.75,302.85 303.00,297.00 297.15,287.25 295.20,273.60"/>
        <lane id=":J0_7_1" index="1" speed="13.89" length="45.16" shape="326.40,301.60 314.15,299.85 305.40,294.60 300.15,285.85 298.40,273.60"/>
    </edge>
    <edge id=":J0_9" function="internal">
        <lane id=":J0_9_0" index="0" speed="6.51" length="9.03" shape="320.80,273.60 321.15,276.05 322.20,277.80 323.95,278.85 326.40,279.20"/>
        <lane id=":J0_9_1" index="1" speed="8.00" length="14.19" shape="317.60,273.60 318.15,277.45 319.80,280.20 322.55,281.85 326.40,282.40"/>
    </edge>
    <edge id=":J0_11" function="internal">
        <lane id=":J0_11_0" index="0" speed="13.89" length="46.40" shape="314.40,273.60 314.40,320.00"/>
        <lane id=":J0_11_1" index="1" speed="13.89" length="46.40" shape="311.20,273.60 311.20,320.00"/>
        <lane id=":J0_11_2" index="2" speed="13.89" length="46.40" shape="308.00,273.60 308.00,320.00"/>
    </edge>
    <edge id=":J0_14" function="internal">
        <lane id=":J0_14_0" index="0" speed="13.58" length="42.86" shape="304.80,273.60 303.45,287.25 299.40,297.00 292.65,302.85 283.20,304.80"/>
        <lane id=":J0_14_1" index="1" speed="12.76" length="37.73" shape="301.60,273.60 300.45,285.85 297.00,294.60 291.25,299.85 283.20,301.60"/>
    </edge>
    <edge id=":J0_16" function="internal">
        <lane id=":J0_16_0" index="0" speed="6.51" length="9.03" shape="283.20,279.20 285.65,278.85 287.40,277.80 288.45,276.05 288.80,273.60"/>
        <lane id=":J0_16_1" index="1" speed="8.00" length="14.19" shape="283.20,282.40 287.05,281.85 289.80,280.20 291.45,277.45 292.00,273.60"/>
    </edge>
    <edge id=":J0_18" function="internal">
        <lane id=":J0_18_0" index="0" speed="13.89" length="43.20" shape="283.20,285.60 326.40,285.60"/>
        <lane id=":J0_18_1" index="1" speed="13.89" length="43.20" shape="283.20,288.80 326.40,288.80"/>
    </edge>
    <edge id=":J0_20" function="internal">
        <lane id=":J0_20_0" index="0" speed="13.54" length="42.61" shape="283.20,292.00 294.05,293.75 301.80,299.00 306.45,307.75 308.00,320.00"/>
        <lane id=":J0_20_1" index="1" speed="12.72" length="37.45" shape="283.20,295.20 292.65,296.75 299.40,301.40 303.45,309.15 304.80,320.00"/>
        <lane id=":J0_20_2" index="2" speed="11.84" length="32.30" shape="283.20,298.40 291.25,299.75 297.00,303.80 300.45,310.55 301.60,320.00"/>
    </edge>
    <edge id=":J1_0" function="internal">
        <lane id=":J1_0_0" index="0" speed="3.65" length="4.67" shape="301.60,600.00 300.80,601.20 300.00,601.60 299.20,601.20 298.40,600.00"/>
    </edge>
    <edge id=":J2_0" function="internal">
        <lane id=":J2_0_0" index="0" speed="3.65" length="4.67" shape="600.00,298.40 601.20,299.20 601.60,300.00 601.20,300.80 600.00,301.60"/>
    </edge>
    <edge id=":J3_0" function="internal">
        <lane id=":J3_0_0" index="0" speed="3.65" length="4.67" shape="298.40,0.00 299.20,-1.20 300.00,-1.60 300.80,-1.20 301.60,0.00"/>
    </edge>
    <edge id=":J4_0" function="internal">
        <lane id=":J4_0_0" index="0" speed="3.65" length="4.67" shape="0.00,301.60 -1.20,300.80 -1.60,300.00 -1.20,299.20 0.00,298.40"/>
    </edge>

    <edge id="1I" from="J1" to="J0" priority="-1">
        <lane id="1I_0" index="0" speed="13.89" length="280.00" shape="288.80,600.00 288.80,320.00"/>
        <lane id="1I_1" index="1" speed="13.89" length="280.00" shape="292.00,600.00 292.00,320.00"/>
        <lane id="1I_2" index="2" speed="13.89" length="280.00" shape="295.20,600.00 295.20,320.00"/>
        <lane id="1I_3" index="3" speed="13.89" length="280.00" shape="298.40,600.00 298.40,320.00"/>
    </edge>
    <edge id="1O" from="J0" to="J1" priority="-1">
        <lane id="1O_0" index="0" speed="13.89" length="280.00" shape="320.80,320.00 320.80,600.00"/>
        <lane id="1O_1" index="1" speed="13.89" length="280.00" shape="317.60,320.00 317.60,600.00"/>
        <lane id="1O_2" index="2" speed="13.89" length="280.00" shape="314.40,320.00 314.40,600.00"/>
        <lane id="1O_3" index="3" speed="13.89" length="280.00" shape="311.20,320.00 311.20,600.00"/>
        <lane id="1O_4" index="4" speed="13.89" length="280.00" shape="308.00,320.00 308.00,600.00"/>
        <lane id="1O_5" index="5" speed="13.89" length="280.00" shape="304.80,320.00 304.80,600.00"/>
        <lane id="1O_6" index="6" speed="13.89" length="280.00" shape="301.60,320.00 301.60,600.00"/>
    </edge>
    <edge id="2I" from="J2" to="J0" priority="-1">
        <lane id="2I_0" index="0" speed="13.89" length="273.60" shape="600.00,314.40 326.40,314.40"/>
        <lane id="2I_1" index="1" speed="13.89" length="273.60" shape="600.00,311.20 326.40,311.20"/>
        <lane id="2I_2" index="2" speed="13.89" length="273.60" shape="600.00,308.00 326.40,308.00"/>
        <lane id="2I_3" index="3" speed="13.89" length="273.60" shape="600.00,304.80 326.40,304.80"/>
        <lane id="2I_4" index="4" speed="13.89" length="273.60" shape="600.00,301.60 326.40,301.60"/>
    </edge>
    <edge id="2O" from="J0" to="J2" priority="-1">
        <lane id="2O_0" index="0" speed="13.89" length="273.60" shape="326.40,279.20 600.00,279.20"/>
        <lane id="2O_1" index="1" speed="13.89" length="273.60" shape="326.40,282.40 600.00,282.40"/>
        <lane id="2O_2" index="2" speed="13.89" length="273.60" shape="326.40,285.60 600.00,285.60"/>
        <lane id="2O_3" index="3" speed="13.89" length="273.60" shape="326.40,288.80 600.00,288.80"/>
        <lane id="2O_4" index="4" speed="13.89" length="273.60" shape="326.40,292.00 600.00,292.00"/>
        <lane id="2O_5" index="5" speed="13.89" length="273.60" shape="326.40,295.20 600.00,295.20"/>
        <lane id="2O_6" index="6" speed="13.89" length="273.60" shape="326.40,298.40 600.00,298.40"/>
    </edge>
    <edge id="3I" from="J3" to="J0" priority="-1">
        <lane id="3I_0" index="0" speed="13.89" length="273.60" shape="320.80,0.00 320.80,273.60"/>
        <lane id="3I_1" index="1" speed="13.89" length="273.60" shape="317.60,0.00 317.60,273.60"/>
        <lane id="3I_2" index="2" speed="13.89" length="273.60" shape="314.40,0.00 314.40,273.60"/>
        <lane id="3I_3" index="3" speed="13.89" length="273.60" shape="311.20,0.00 311.20,273.60"/>
        <lane id="3I_4" index="4" speed="13.89" length="273.60" shape="308.00,0.00 308.00,273.60"/>
        <lane id="3I_5" index="5" speed="13.89" length="273.60" shape="304.80,0.00 304.80,273.60"/>
        <lane id="3I_6" index="6" speed="13.89" length="273.60" shape="301.60,0.00 301.60,273.60"/>
    </edge>
    <edge id="3O" from="J0" to="J3" priority="-1">
        <lane id="3O_0" index="0" speed="13.89" length="273.60" shape="288.80,273.60 288.80,0.00"/>
        <lane id="3O_1" index="1" speed="13.89" length="273.60" shape="292.00,273.60 292.00,0.00"/>
        <lane id="3O_2" index="2" speed="13.89" length="273.60" shape="295.20,273.60 295.20,0.00"/>
        <lane id="3O_3" index="3" speed="13.89" length="273.60" shape="298.40,273.60 298.40,0.00"/>
    </edge>
    <edge id="4I" from="J4" to="J0" priority="-1">
        <lane id="4I_0" index="0" speed="13.89" length="283.20" shape="0.00,279.20 283.20,279.20"/>
        <lane id="4I_1" index="1" speed="13.89" length="283.20" shape="0.00,282.40 283.20,282.40"/>
        <lane id="4I_2" index="2" speed="13.89" length="283.20" shape="0.00,285.60 283.20,285.60"/>
        <lane id="4I_3" index="3" speed="13.89" length="283.20" shape="0.00,288.80 283.20,288.80"/>
        <lane id="4I_4" index="4" speed="13.89" length="283.20" shape="0.00,292.00 283.20,292.00"/>
        <lane id="4I_5" index="5" speed="13.89" length="283.20" shape="0.00,295.20 283.20,295.20"/>
        <lane id="4I_6" index="6" speed="13.89" length="283.20" shape="0.00,298.40 283.20,298.40"/>
    </edge>
    <edge id="4O" from="J0" to="J4" priority="-1">
        <lane id="4O_0" index="0" speed="13.89" length="283.20" shape="283.20,314.40 0.00,314.40"/>
        <lane id="4O_1" index="1" speed="13.89" length="283.20" shape="283.20,311.20 0.00,311.20"/>
        <lane id="4O_2" index="2" speed="13.89" length="283.20" shape="283.20,308.00 0.00,308.00"/>
        <lane id="4O_3" index="3" speed="13.89" length="283.20" shape="283.20,304.80 0.00,304.80"/>
        <lane id="4O_4" index="4" speed="13.89" length="283.20" shape="283.20,301.60 0.00,301.60"/>
    </edge>

    <tlLogic id="J0" type="static" programID="0" offset="0">
        <phase duration="15" state="rrrGGGrrrrrrrrGGGGrrrrr"/>
        <phase duration="3"  state="rrrYYYrrrrrrrrYYYYrrrrr"/>
        <phase duration="15" state="GGGrrrrrrGGGGGrrrrrrrrr"/>
        <phase duration="3"  state="GYYrrrrrrGGYYYrrrrrrrrr"/>
        <phase duration="15" state="GrrrrrrGGGGrrrrrrrrrGGG"/>
        <phase duration="3"  state="YrrrrrrYYYYrrrrrrrrrYYY"/>
        <phase duration="15" state="rrrrGGGrrrrrrrrrGGGGrrr"/>
        <phase duration="3"  state="rrrrGGYrrrrrrrrrGGYYrrr"/>
    </tlLogic>

    <junction id="J0" type="traffic_light" x="300.00" y="300.00" incLanes="1I_0 1I_1 1I_2 1I_3 2I_0 2I_1 2I_2 2I_3 2I_4 3I_0 3I_1 3I_2 3I_3 3I_4 3I_5 3I_6 4I_0 4I_1 4I_2 4I_3 4I_4 4I_5 4I_6" intLanes=":J0_0_0 :J0_1_0 :J0_1_1 :J0_3_0 :J0_4_0 :J0_4_1 :J0_6_0 :J0_7_0 :J0_7_1 :J0_9_0 :J0_9_1 :J0_11_0 :J0_11_1 :J0_11_2 :J0_14_0 :J0_14_1 :J0_16_0 :J0_16_1 :J0_18_0 :J0_18_1 :J0_20_0 :J0_20_1 :J0_20_2" shape="287.20,320.00 322.40,320.00 322.84,317.78 323.40,317.00 324.18,316.44 325.18,316.11 326.40,316.00 326.40,277.60 324.18,277.16 323.40,276.60 322.84,275.82 322.51,274.82 322.40,273.60 287.20,273.60 286.76,275.82 286.20,276.60 285.42,277.16 284.42,277.49 283.20,277.60 283.20,316.00 285.42,316.44 286.20,317.00 286.76,317.78 287.09,318.78">
        <request index="0"  response="00000000000000000000000" foes="00000000000000000000000" cont="0"/>
        <request index="1"  response="11111110000000111000000" foes="11111111100000111000000" cont="0"/>
        <request index="2"  response="11111110000000111000000" foes="11111111100000111000000" cont="0"/>
        <request index="3"  response="11100000011100111000000" foes="11100000011100111000000" cont="0"/>
        <request index="4"  response="00000000000000000000000" foes="00000000000000000000000" cont="0"/>
        <request index="5"  response="00000000000000000000000" foes="00000000000000000000000" cont="0"/>
        <request index="6"  response="00000000000000000000000" foes="11100000011100000001110" cont="0"/>
        <request index="7"  response="00011000000000000000000" foes="00011001111100000001110" cont="0"/>
        <request index="8"  response="00011000000000000000000" foes="00011001111100000001110" cont="0"/>
        <request index="9"  response="00000000000000000000000" foes="00000000000000000000000" cont="0"/>
        <request index="10" response="00000000000000000000000" foes="00000000000000000000000" cont="0"/>
        <request index="11" response="11111000000000111000000" foes="11111000000000111001000" cont="0"/>
        <request index="12" response="11111000000000111000000" foes="11111000000000111001000" cont="0"/>
        <request index="13" response="11111000000000111000000" foes="11111000000000111001000" cont="0"/>
        <request index="14" response="11111000000000110000110" foes="11111000000000110000110" cont="0"/>
        <request index="15" response="11111000000000110000110" foes="11111000000000110000110" cont="0"/>
        <request index="16" response="00000000000000000000000" foes="00000000000000000000110" cont="0"/>
        <request index="17" response="00000000000000000000000" foes="00000000000000000000110" cont="0"/>
        <request index="18" response="00000000000000000000000" foes="00000001111100110000110" cont="0"/>
        <request index="19" response="00000000000000000000000" foes="00000001111100110000110" cont="0"/>
        <request index="20" response="00000000000000001000000" foes="00000001111100001001110" cont="0"/>
        <request index="21" response="00000000000000001000000" foes="00000001111100001001110" cont="0"/>
        <request index="22" response="00000000000000001000000" foes="00000001111100001001110" cont="0"/>
    </junction>
    <junction id="J1" type="priority" x="300.00" y="600.00" incLanes="1O_0 1O_1 1O_2 1O_3 1O_4 1O_5 1O_6" intLanes=":J1_0_0" shape="300.00,600.00 322.40,600.00 300.00,600.00">
        <request index="0" response="0" foes="0" cont="0"/>
    </junction>
    <junction id="J2" type="priority" x="600.00" y="300.00" incLanes="2O_0 2O_1 2O_2 2O_3 2O_4 2O_5 2O_6" intLanes=":J2_0_0" shape="600.00,300.00 600.00,277.60 600.00,300.00">
        <request index="0" response="0" foes="0" cont="0"/>
    </junction>
    <junction id="J3" type="priority" x="300.00" y="0.00" incLanes="3O_0 3O_1 3O_2 3O_3" intLanes=":J3_0_0" shape="300.00,0.00 287.20,0.00 300.00,0.00">
        <request index="0" response="0" foes="0" cont="0"/>
    </junction>
    <junction id="J4" type="priority" x="0.00" y="300.00" incLanes="4O_0 4O_1 4O_2 4O_3 4O_4" intLanes=":J4_0_0" shape="0.00,300.00 0.00,316.00 0.00,300.00">
        <request index="0" response="0" foes="0" cont="0"/>
    </junction>

    <connection from="1I" to="4O" fromLane="0" toLane="0" contPos="0.00" via=":J0_0_0" tl="J0" linkIndex="0" dir="r" state="O"/>
    <connection from="1I" to="3O" fromLane="1" toLane="1" contPos="0.00" via=":J0_1_0" tl="J0" linkIndex="1" dir="s" state="o"/>
    <connection from="1I" to="3O" fromLane="2" toLane="2" contPos="0.00" via=":J0_1_1" tl="J0" linkIndex="2" dir="s" state="o"/>
    <connection from="1I" to="2O" fromLane="3" toLane="6" contPos="0.00" via=":J0_3_0" tl="J0" linkIndex="3" dir="l" state="o"/>
    <connection from="1O" to="1I" fromLane="6" toLane="3" via=":J1_0_0" dir="t" state="M"/>
    <connection from="2I" to="1O" fromLane="0" toLane="0" contPos="0.00" via=":J0_4_0" tl="J0" linkIndex="4" dir="r" state="O"/>
    <connection from="2I" to="1O" fromLane="1" toLane="1" contPos="0.00" via=":J0_4_1" tl="J0" linkIndex="5" dir="r" state="O"/>
    <connection from="2I" to="4O" fromLane="2" toLane="2" contPos="0.00" via=":J0_6_0" tl="J0" linkIndex="6" dir="s" state="O"/>
    <connection from="2I" to="3O" fromLane="3" toLane="2" contPos="0.00" via=":J0_7_0" tl="J0" linkIndex="7" dir="l" state="o"/>
    <connection from="2I" to="3O" fromLane="4" toLane="3" contPos="0.00" via=":J0_7_1" tl="J0" linkIndex="8" dir="l" state="o"/>
    <connection from="2O" to="2I" fromLane="6" toLane="4" via=":J2_0_0" dir="t" state="M"/>
    <connection from="3I" to="2O" fromLane="0" toLane="0" contPos="0.00" via=":J0_9_0" tl="J0" linkIndex="9" dir="r" state="O"/>
    <connection from="3I" to="2O" fromLane="1" toLane="1" contPos="0.00" via=":J0_9_1" tl="J0" linkIndex="10" dir="r" state="O"/>
    <connection from="3I" to="1O" fromLane="2" toLane="2" contPos="0.00" via=":J0_11_0" tl="J0" linkIndex="11" dir="s" state="o"/>
    <connection from="3I" to="1O" fromLane="3" toLane="3" contPos="0.00" via=":J0_11_1" tl="J0" linkIndex="12" dir="s" state="o"/>
    <connection from="3I" to="1O" fromLane="4" toLane="4" contPos="0.00" via=":J0_11_2" tl="J0" linkIndex="13" dir="s" state="o"/>
    <connection from="3I" to="4O" fromLane="5" toLane="3" contPos="0.00" via=":J0_14_0" tl="J0" linkIndex="14" dir="l" state="o"/>
    <connection from="3I" to="4O" fromLane="6" toLane="4" contPos="0.00" via=":J0_14_1" tl="J0" linkIndex="15" dir="l" state="o"/>
    <connection from="3O" to="3I" fromLane="3" toLane="6" via=":J3_0_0" dir="t" state="M"/>
    <connection from="4I" to="3O" fromLane="0" toLane="0" contPos="0.00" via=":J0_16_0" tl="J0" linkIndex="16" dir="r" state="O"/>
    <connection from="4I" to="3O" fromLane="1" toLane="1" contPos="0.00" via=":J0_16_1" tl="J0" linkIndex="17" dir="r" state="O"/>
    <connection from="4I" to="2O" fromLane="2" toLane="2" contPos="0.00" via=":J0_18_0" tl="J0" linkIndex="18" dir="s" state="O"/>
    <connection from="4I" to="2O" fromLane="3" toLane="3" contPos="0.00" via=":J0_18_1" tl="J0" linkIndex="19" dir="s" state="O"/>
    <connection from="4I" to="1O" fromLane="4" toLane="4" contPos="0.00" via=":J0_20_0" tl="J0" linkIndex="20" dir="l" state="o"/>
    <connection from="4I" to="1O" fromLane="5" toLane="5" contPos="0.00" via=":J0_20_1" tl="J0" linkIndex="21" dir="l" state="o"/>
    <connection from="4I" to="1O" fromLane="6" toLane="6" contPos="0.00" via=":J0_20_2" tl="J0" linkIndex="22" dir="l" state="o"/>
    <connection from="4O" to="4I" fromLane="4" toLane="6" via=":J4_0_0" dir="t" state="M"/>

    <connection from=":J0_0" to="4O" fromLane="0" toLane="0" dir="r" state="M"/>
    <connection from=":J0_1" to="3O" fromLane="0" toLane="1" dir="s" state="M"/>
    <connection from=":J0_1" to="3O" fromLane="1" toLane="2" dir="s" state="M"/>
    <connection from=":J0_3" to="2O" fromLane="0" toLane="6" dir="l" state="M"/>
    <connection from=":J0_4" to="1O" fromLane="0" toLane="0" dir="r" state="M"/>
    <connection from=":J0_4" to="1O" fromLane="1" toLane="1" dir="r" state="M"/>
    <connection from=":J0_6" to="4O" fromLane="0" toLane="2" dir="s" state="M"/>
    <connection from=":J0_7" to="3O" fromLane="0" toLane="2" dir="l" state="M"/>
    <connection from=":J0_7" to="3O" fromLane="1" toLane="3" dir="l" state="M"/>
    <connection from=":J0_9" to="2O" fromLane="0" toLane="0" dir="r" state="M"/>
    <connection from=":J0_9" to="2O" fromLane="1" toLane="1" dir="r" state="M"/>
    <connection from=":J0_11" to="1O" fromLane="0" toLane="2" dir="s" state="M"/>
    <connection from=":J0_11" to="1O" fromLane="1" toLane="3" dir="s" state="M"/>
    <connection from=":J0_11" to="1O" fromLane="2" toLane="4" dir="s" state="M"/>
    <connection from=":J0_14" to="4O" fromLane="0" toLane="3" dir="l" state="M"/>
    <connection from=":J0_14" to="4O" fromLane="1" toLane="4" dir="l" state="M"/>
    <connection from=":J0_16" to="3O" fromLane="0" toLane="0" dir="r" state="M"/>
    <connection from=":J0_16" to="3O" fromLane="1" toLane="1" dir="r" state="M"/>
    <connection from=":J0_18" to="2O" fromLane="0" toLane="2" dir="s" state="M"/>
    <connection from=":J0_18" to="2O" fromLane="1" toLane="3" dir="s" state="M"/>
    <connection from=":J0_20" to="1O" fromLane="0" toLane="4" dir="l" state="M"/>
    <connection from=":J0_20" to="1O" fromLane="1" toLane="5" dir="l" state="M"/>
    <connection from=":J0_20" to="1O" fromLane="2" toLane="6" dir="l" state="M"/>
    <connection from=":J1_0" to="1I" fromLane="0" toLane="3" dir="t" state="M"/>
    <connection from=":J2_0" to="2I" fromLane="0" toLane="4" dir="t" state="M"/>
    <connection from=":J3_0" to="3I" fromLane="0" toLane="6" dir="t" state="M"/>
    <connection from=":J4_0" to="4I" fromLane="0" toLane="6" dir="t" state="M"/>

</net>
