<?xml version="1.0" encoding="UTF-8"?>

<!-- generated on 2022-04-07 14:05:56 by Eclipse SUMO netconvert Version 1.9.2
<configuration xmlns:xsi="http://www.w3.org/2001/XMLSchema-instance" xsi:noNamespaceSchemaLocation="http://sumo.dlr.de/xsd/netconvertConfiguration.xsd">

    <input>
        <node-files value="network/inputs/input.nod.xml"/>
        <edge-files value="network/inputs/input_5_5_7_5.edg.xml"/>
        <connection-files value="network/inputs/input_rssll_rrssl_rssssll_rslll.con.xml"/>
        <tllogic-files value="network/inputs/input_rssll_rrssl_rssssll_rslll.tll.xml"/>
    </input>

    <output>
        <output-file value="network/rssll_rrssl_rssssll_rslll.net.xml"/>
    </output>

    <report>
        <no-warnings value="true"/>
        <aggregate-warnings value="5"/>
        <log value="network/log/rssll_rrssl_rssssll_rslll.log.xml"/>
    </report>

</configuration>
-->

<net version="1.9" junctionCornerDetail="5" limitTurnSpeed="5.50" xmlns:xsi="http://www.w3.org/2001/XMLSchema-instance" xsi:noNamespaceSchemaLocation="http://sumo.dlr.de/xsd/net_file.xsd">

    <location netOffset="300.00,300.00" convBoundary="0.00,0.00,600.00,600.00" origBoundary="-300.00,-300.00,300.00,300.00" projParameter="!"/>

    <edge id=":J0_0" function="internal">
        <lane id=":J0_0_0" index="0" speed="6.51" length="9.03" shape="285.60,320.00 285.25,317.55 284.20,315.80 282.45,314.75 280.00,314.40"/>
    </edge>
    <edge id=":J0_1" function="internal">
        <lane id=":J0_1_0" index="0" speed="13.89" length="40.00" shape="288.80,320.00 288.80,280.00"/>
        <lane id=":J0_1_1" index="1" speed="13.89" length="40.00" shape="292.00,320.00 292.00,280.00"/>
    </edge>
    <edge id=":J0_3" function="internal">
        <lane id=":J0_3_0" index="0" speed="13.89" length="45.27" shape="295.20,320.00 297.15,309.15 303.00,301.40 312.75,296.75 326.40,295.20"/>
        <lane id=":J0_3_1" index="1" speed="13.15" length="40.13" shape="298.40,320.00 300.15,310.55 305.40,303.80 314.15,299.75 326.40,298.40"/>
    </edge>
    <edge id=":J0_5" function="internal">
        <lane id=":J0_5_0" index="0" speed="6.51" length="9.03" shape="326.40,314.40 323.95,314.75 322.20,315.80 321.15,317.55 320.80,320.00"/>
        <lane id=":J0_5_1" index="1" speed="8.00" length="14.19" shape="326.40,311.20 322.55,311.75 319.80,313.40 318.15,316.15 317.60,320.00"/>
    </edge>
    <edge id=":J0_7" function="internal">
        <lane id=":J0_7_0" index="0" speed="13.89" length="46.40" shape="326.40,308.00 280.00,308.00"/>
        <lane id=":J0_7_1" index="1" speed="13.89" length="46.40" shape="326.40,304.80 280.00,304.80"/>
    </edge>
    <edge id=":J0_9" function="internal">
        <lane id=":J0_9_0" index="0" speed="13.15" length="40.13" shape="326.40,301.60 314.15,300.25 305.40,296.20 300.15,289.45 298.40,280.00"/>
    </edge>
    <edge id=":J0_10" function="internal">
        <lane id=":J0_10_0" index="0" speed="6.51" length="9.03" shape="320.80,280.00 321.15,282.45 322.20,284.20 323.95,285.25 326.40,285.60"/>
    </edge>
    <edge id=":J0_11" function="internal">
        <lane id=":J0_11_0" index="0" speed="13.89" length="40.00" shape="317.60,280.00 317.60,320.00"/>
        <lane id=":J0_11_1" index="1" speed="13.89" length="40.00" shape="314.40,280.00 314.40,320.00"/>
        <lane id=":J0_11_2" index="2" speed="13.89" length="40.00" shape="311.20,280.00 311.20,320.00"/>
        <lane id=":J0_11_3" index="3" speed="13.89" length="40.00" shape="308.00,280.00 308.00,320.00"/>
    </edge>
    <edge id=":J0_15" function="internal">
        <lane id=":J0_15_0" index="0" speed="13.13" length="40.00" shape="304.80,280.00 303.25,290.85 298.60,298.60 290.85,303.25 280.00,304.80"/>
        <lane id=":J0_15_1" index="1" speed="12.28" length="34.84" shape="301.60,280.00 300.25,289.45 296.20,296.20 289.45,300.25 280.00,301.60"/>
    </edge>
    <edge id=":J0_17" function="internal">
        <lane id=":J0_17_0" index="0" speed="6.51" length="9.03" shape="280.00,285.60 282.45,285.25 284.20,284.20 285.25,282.45 285.60,280.00"/>
    </edge>
    <edge id=":J0_18" function="internal">
        <lane id=":J0_18_0" index="0" speed="13.89" length="46.40" shape="280.00,288.80 326.40,288.80"/>
    </edge>
    <edge id=":J0_19" function="internal">
        <lane id=":J0_19_0" index="0" speed="13.89" length="45.16" shape="280.00,292.00 292.25,293.75 301.00,299.00 306.25,307.75 308.00,320.00"/>
        <lane id=":J0_19_1" index="1" speed="13.13" length="40.00" shape="280.00,295.20 290.85,296.75 298.60,301.40 303.25,309.15 304.80,320.00"/>
        <lane id=":J0_19_2" index="2" speed="12.28" length="34.84" shape="280.00,298.40 289.45,299.75 296.20,303.80 300.25,310.55 301.60,320.00"/>
    </edge>
    <edge id=":J1_0" function="internal">
        <lane id=":J1_0_0" index="0" speed="3.65" length="4.67" shape="301.60,600.00 300.80,601.20 300.00,601.60 299.20,601.20 298.40,600.00"/>
    </edge>
    <edge id=":J2_0" function="internal">
        <lane id=":J2_0_0" index="0" speed="3.65" length="4.67" shape="600.00,298.40 601.20,299.20 601.60,300.00 601.20,300.80 600.00,301.60"/>
    </edge>
    <edge id=":J3_0" function="internal">
        <lane id=":J3_0_0" index="0" speed="3.65" length="4.67" shape="298.40,0.00 299.20,-1.20 300.00,-1.60 300.80,-1.20 301.60,0.00"/>
    </edge>
    <edge id=":J4_0" function="internal">
        <lane id=":J4_0_0" index="0" speed="3.65" length="4.67" shape="0.00,301.60 -1.20,300.80 -1.60,300.00 -1.20,299.20 0.00,298.40"/>
    </edge>

    <edge id="1I" from="J1" to="J0" priority="-1">
        <lane id="1I_0" index="0" speed="13.89" length="280.00" shape="285.60,600.00 285.60,320.00"/>
        <lane id="1I_1" index="1" speed="13.89" length="280.00" shape="288.80,600.00 288.80,320.00"/>
        <lane id="1I_2" index="2" speed="13.89" length="280.00" shape="292.00,600.00 292.00,320.00"/>
        <lane id="1I_3" index="3" speed="13.89" length="280.00" shape="295.20,600.00 295.20,320.00"/>
        <lane id="1I_4" index="4" speed="13.89" length="280.00" shape="298.40,600.00 298.40,320.00"/>
    </edge>
    <edge id="1O" from="J0" to="J1" priority="-1">
        <lane id="1O_0" index="0" speed="13.89" length="280.00" shape="320.80,320.00 320.80,600.00"/>
        <lane id="1O_1" index="1" speed="13.89" length="280.00" shape="317.60,320.00 317.60,600.00"/>
        <lane id="1O_2" index="2" speed="13.89" length="280.00" shape="314.40,320.00 314.40,600.00"/>
        <lane id="1O_3" index="3" speed="13.89" length="280.00" shape="311.20,320.00 311.20,600.00"/>
        <lane id="1O_4" index="4" speed="13.89" length="280.00" shape="308.00,320.00 308.00,600.00"/>
        <lane id="1O_5" index="5" speed="13.89" length="280.00" shape="304.80,320.00 304.80,600.00"/>
        <lane id="1O_6" index="6" speed="13.89" length="280.00" shape="301.60,320.00 301.60,600.00"/>
    </edge>
    <edge id="2I" from="J2" to="J0" priority="-1">
        <lane id="2I_0" index="0" speed="13.89" length="273.60" shape="600.00,314.40 326.40,314.40"/>
        <lane id="2I_1" index="1" speed="13.89" length="273.60" shape="600.00,311.20 326.40,311.20"/>
        <lane id="2I_2" index="2" speed="13.89" length="273.60" shape="600.00,308.00 326.40,308.00"/>
        <lane id="2I_3" index="3" speed="13.89" length="273.60" shape="600.00,304.80 326.40,304.80"/>
        <lane id="2I_4" index="4" speed="13.89" length="273.60" shape="600.00,301.60 326.40,301.60"/>
    </edge>
    <edge id="2O" from="J0" to="J2" priority="-1">
        <lane id="2O_0" index="0" speed="13.89" length="273.60" shape="326.40,285.60 600.00,285.60"/>
        <lane id="2O_1" index="1" speed="13.89" length="273.60" shape="326.40,288.80 600.00,288.80"/>
        <lane id="2O_2" index="2" speed="13.89" length="273.60" shape="326.40,292.00 600.00,292.00"/>
        <lane id="2O_3" index="3" speed="13.89" length="273.60" shape="326.40,295.20 600.00,295.20"/>
        <lane id="2O_4" index="4" speed="13.89" length="273.60" shape="326.40,298.40 600.00,298.40"/>
    </edge>
    <edge id="3I" from="J3" to="J0" priority="-1">
        <lane id="3I_0" index="0" speed="13.89" length="280.00" shape="320.80,0.00 320.80,280.00"/>
        <lane id="3I_1" index="1" speed="13.89" length="280.00" shape="317.60,0.00 317.60,280.00"/>
        <lane id="3I_2" index="2" speed="13.89" length="280.00" shape="314.40,0.00 314.40,280.00"/>
        <lane id="3I_3" index="3" speed="13.89" length="280.00" shape="311.20,0.00 311.20,280.00"/>
        <lane id="3I_4" index="4" speed="13.89" length="280.00" shape="308.00,0.00 308.00,280.00"/>
        <lane id="3I_5" index="5" speed="13.89" length="280.00" shape="304.80,0.00 304.80,280.00"/>
        <lane id="3I_6" index="6" speed="13.89" length="280.00" shape="301.60,0.00 301.60,280.00"/>
    </edge>
    <edge id="3O" from="J0" to="J3" priority="-1">
        <lane id="3O_0" index="0" speed="13.89" length="280.00" shape="285.60,280.00 285.60,0.00"/>
        <lane id="3O_1" index="1" speed="13.89" length="280.00" shape="288.80,280.00 288.80,0.00"/>
        <lane id="3O_2" index="2" speed="13.89" length="280.00" shape="292.00,280.00 292.00,0.00"/>
        <lane id="3O_3" index="3" speed="13.89" length="280.00" shape="295.20,280.00 295.20,0.00"/>
        <lane id="3O_4" index="4" speed="13.89" length="280.00" shape="298.40,280.00 298.40,0.00"/>
    </edge>
    <edge id="4I" from="J4" to="J0" priority="-1">
        <lane id="4I_0" index="0" speed="13.89" length="280.00" shape="0.00,285.60 280.00,285.60"/>
        <lane id="4I_1" index="1" speed="13.89" length="280.00" shape="0.00,288.80 280.00,288.80"/>
        <lane id="4I_2" index="2" speed="13.89" length="280.00" shape="0.00,292.00 280.00,292.00"/>
        <lane id="4I_3" index="3" speed="13.89" length="280.00" shape="0.00,295.20 280.00,295.20"/>
        <lane id="4I_4" index="4" speed="13.89" length="280.00" shape="0.00,298.40 280.00,298.40"/>
    </edge>
    <edge id="4O" from="J0" to="J4" priority="-1">
        <lane id="4O_0" index="0" speed="13.89" length="280.00" shape="280.00,314.40 0.00,314.40"/>
        <lane id="4O_1" index="1" speed="13.89" length="280.00" shape="280.00,311.20 0.00,311.20"/>
        <lane id="4O_2" index="2" speed="13.89" length="280.00" shape="280.00,308.00 0.00,308.00"/>
        <lane id="4O_3" index="3" speed="13.89" length="280.00" shape="280.00,304.80 0.00,304.80"/>
        <lane id="4O_4" index="4" speed="13.89" length="280.00" shape="280.00,301.60 0.00,301.60"/>
    </edge>

    <tlLogic id="J0" type="static" programID="0" offset="0">
        <phase duration="15" state="rrrGGGGrrrrrrrrGGGrrrr"/>
        <phase duration="3"  state="rrrYYYYrrrrrrrrYYYrrrr"/>
        <phase duration="15" state="GGGrrrrrrrGGGGGrrrrrrr"/>
        <phase duration="3"  state="GYYrrrrrrrGYYYYrrrrrrr"/>
        <phase duration="15" state="GrrrrrrrrGGrrrrrrrrGGG"/>
        <phase duration="3"  state="YrrrrrrrrYYrrrrrrrrYYY"/>
        <phase duration="15" state="rrrrrGGGGrrrrrrrrGGrrr"/>
        <phase duration="3"  state="rrrrrGGYYrrrrrrrrGYrrr"/>
    </tlLogic>

    <junction id="J0" type="traffic_light" x="300.00" y="300.00" incLanes="1I_0 1I_1 1I_2 1I_3 1I_4 2I_0 2I_1 2I_2 2I_3 2I_4 3I_0 3I_1 3I_2 3I_3 3I_4 3I_5 3I_6 4I_0 4I_1 4I_2 4I_3 4I_4" intLanes=":J0_0_0 :J0_1_0 :J0_1_1 :J0_3_0 :J0_3_1 :J0_5_0 :J0_5_1 :J0_7_0 :J0_7_1 :J0_9_0 :J0_10_0 :J0_11_0 :J0_11_1 :J0_11_2 :J0_11_3 :J0_15_0 :J0_15_1 :J0_17_0 :J0_18_0 :J0_19_0 :J0_19_1 :J0_19_2" shape="284.00,320.00 322.40,320.00 322.84,317.78 323.40,317.00 324.18,316.44 325.18,316.11 326.40,316.00 326.40,284.00 324.18,283.56 323.40,283.00 322.84,282.22 322.51,281.22 322.40,280.00 284.00,280.00 283.56,282.22 283.00,283.00 282.22,283.56 281.22,283.89 280.00,284.00 280.00,316.00 282.22,316.44 283.00,317.00 283.56,317.78 283.89,318.78">
        <request index="0"  response="0000000000000000000000" foes="0000000000000000000000" cont="0"/>
        <request index="1"  response="0000000000000000000000" foes="1111011000000110000000" cont="0"/>
        <request index="2"  response="0000000000000000000000" foes="1111011000000110000000" cont="0"/>
        <request index="3"  response="0000000111100000000000" foes="1110000111101110000000" cont="0"/>
        <request index="4"  response="0000000111100000000000" foes="1110000111101110000000" cont="0"/>
        <request index="5"  response="0000000111100000000000" foes="0000000111100000000000" cont="0"/>
        <request index="6"  response="0000000111100000000000" foes="0000000111100000000000" cont="0"/>
        <request index="7"  response="0000011111100000011110" foes="1110011111100000011110" cont="0"/>
        <request index="8"  response="0000011111100000011110" foes="1110011111100000011110" cont="0"/>
        <request index="9"  response="0001011111100000011000" foes="0001011111100000011000" cont="0"/>
        <request index="10" response="0000000000000000000000" foes="0000000000000000000000" cont="0"/>
        <request index="11" response="0000000000000000000000" foes="1111000000001111111000" cont="0"/>
        <request index="12" response="0000000000000000000000" foes="1111000000001111111000" cont="0"/>
        <request index="13" response="0000000000000000000000" foes="1111000000001111111000" cont="0"/>
        <request index="14" response="0000000000000000000000" foes="1111000000001111111000" cont="0"/>
        <request index="15" response="0000000000000000000110" foes="1111000000001110000110" cont="0"/>
        <request index="16" response="0000000000000000000110" foes="1111000000001110000110" cont="0"/>
        <request index="17" response="0000000000000000000000" foes="0000000000000000000000" cont="0"/>
        <request index="18" response="0000011111100000000110" foes="0000011111101000000110" cont="0"/>
        <request index="19" response="0000011111100110011110" foes="0000011111100110011110" cont="0"/>
        <request index="20" response="0000011111100110011110" foes="0000011111100110011110" cont="0"/>
        <request index="21" response="0000011111100110011110" foes="0000011111100110011110" cont="0"/>
    </junction>
    <junction id="J1" type="priority" x="300.00" y="600.00" incLanes="1O_0 1O_1 1O_2 1O_3 1O_4 1O_5 1O_6" intLanes=":J1_0_0" shape="300.00,600.00 322.40,600.00 300.00,600.00">
        <request index="0" response="0" foes="0" cont="0"/>
    </junction>
    <junction id="J2" type="priority" x="600.00" y="300.00" incLanes="2O_0 2O_1 2O_2 2O_3 2O_4" intLanes=":J2_0_0" shape="600.00,300.00 600.00,284.00 600.00,300.00">
        <request index="0" response="0" foes="0" cont="0"/>
    </junction>
    <junction id="J3" type="priority" x="300.00" y="0.00" incLanes="3O_0 3O_1 3O_2 3O_3 3O_4" intLanes=":J3_0_0" shape="300.00,0.00 284.00,0.00 300.00,0.00">
        <request index="0" response="0" foes="0" cont="0"/>
    </junction>
    <junction id="J4" type="priority" x="0.00" y="300.00" incLanes="4O_0 4O_1 4O_2 4O_3 4O_4" intLanes=":J4_0_0" shape="0.00,300.00 0.00,316.00 0.00,300.00">
        <request index="0" response="0" foes="0" cont="0"/>
    </junction>

    <connection from="1I" to="4O" fromLane="0" toLane="0" contPos="0.00" via=":J0_0_0" tl="J0" linkIndex="0" dir="r" state="O"/>
    <connection from="1I" to="3O" fromLane="1" toLane="1" contPos="0.00" via=":J0_1_0" tl="J0" linkIndex="1" dir="s" state="O"/>
    <connection from="1I" to="3O" fromLane="2" toLane="2" contPos="0.00" via=":J0_1_1" tl="J0" linkIndex="2" dir="s" state="O"/>
    <connection from="1I" to="2O" fromLane="3" toLane="3" contPos="0.00" via=":J0_3_0" tl="J0" linkIndex="3" dir="l" state="o"/>
    <connection from="1I" to="2O" fromLane="4" toLane="4" contPos="0.00" via=":J0_3_1" tl="J0" linkIndex="4" dir="l" state="o"/>
    <connection from="1O" to="1I" fromLane="6" toLane="4" via=":J1_0_0" dir="t" state="M"/>
    <connection from="2I" to="1O" fromLane="0" toLane="0" contPos="0.00" via=":J0_5_0" tl="J0" linkIndex="5" dir="r" state="o"/>
    <connection from="2I" to="1O" fromLane="1" toLane="1" contPos="0.00" via=":J0_5_1" tl="J0" linkIndex="6" dir="r" state="o"/>
    <connection from="2I" to="4O" fromLane="2" toLane="2" contPos="0.00" via=":J0_7_0" tl="J0" linkIndex="7" dir="s" state="o"/>
    <connection from="2I" to="4O" fromLane="3" toLane="3" contPos="0.00" via=":J0_7_1" tl="J0" linkIndex="8" dir="s" state="o"/>
    <connection from="2I" to="3O" fromLane="4" toLane="4" contPos="0.00" via=":J0_9_0" tl="J0" linkIndex="9" dir="l" state="o"/>
    <connection from="2O" to="2I" fromLane="4" toLane="4" via=":J2_0_0" dir="t" state="M"/>
    <connection from="3I" to="2O" fromLane="0" toLane="0" contPos="0.00" via=":J0_10_0" tl="J0" linkIndex="10" dir="r" state="O"/>
    <connection from="3I" to="1O" fromLane="1" toLane="1" contPos="0.00" via=":J0_11_0" tl="J0" linkIndex="11" dir="s" state="O"/>
    <connection from="3I" to="1O" fromLane="2" toLane="2" contPos="0.00" via=":J0_11_1" tl="J0" linkIndex="12" dir="s" state="O"/>
    <connection from="3I" to="1O" fromLane="3" toLane="3" contPos="0.00" via=":J0_11_2" tl="J0" linkIndex="13" dir="s" state="O"/>
    <connection from="3I" to="1O" fromLane="4" toLane="4" contPos="0.00" via=":J0_11_3" tl="J0" linkIndex="14" dir="s" state="O"/>
    <connection from="3I" to="4O" fromLane="5" toLane="3" contPos="0.00" via=":J0_15_0" tl="J0" linkIndex="15" dir="l" state="o"/>
    <connection from="3I" to="4O" fromLane="6" toLane="4" contPos="0.00" via=":J0_15_1" tl="J0" linkIndex="16" dir="l" state="o"/>
    <connection from="3O" to="3I" fromLane="4" toLane="6" via=":J3_0_0" dir="t" state="M"/>
    <connection from="4I" to="3O" fromLane="0" toLane="0" contPos="0.00" via=":J0_17_0" tl="J0" linkIndex="17" dir="r" state="O"/>
    <connection from="4I" to="2O" fromLane="1" toLane="1" contPos="0.00" via=":J0_18_0" tl="J0" linkIndex="18" dir="s" state="o"/>
    <connection from="4I" to="1O" fromLane="2" toLane="4" contPos="0.00" via=":J0_19_0" tl="J0" linkIndex="19" dir="l" state="o"/>
    <connection from="4I" to="1O" fromLane="3" toLane="5" contPos="0.00" via=":J0_19_1" tl="J0" linkIndex="20" dir="l" state="o"/>
    <connection from="4I" to="1O" fromLane="4" toLane="6" contPos="0.00" via=":J0_19_2" tl="J0" linkIndex="21" dir="l" state="o"/>
    <connection from="4O" to="4I" fromLane="4" toLane="4" via=":J4_0_0" dir="t" state="M"/>

    <connection from=":J0_0" to="4O" fromLane="0" toLane="0" dir="r" state="M"/>
    <connection from=":J0_1" to="3O" fromLane="0" toLane="1" dir="s" state="M"/>
    <connection from=":J0_1" to="3O" fromLane="1" toLane="2" dir="s" state="M"/>
    <connection from=":J0_3" to="2O" fromLane="0" toLane="3" dir="l" state="M"/>
    <connection from=":J0_3" to="2O" fromLane="1" toLane="4" dir="l" state="M"/>
    <connection from=":J0_5" to="1O" fromLane="0" toLane="0" dir="r" state="M"/>
    <connection from=":J0_5" to="1O" fromLane="1" toLane="1" dir="r" state="M"/>
    <connection from=":J0_7" to="4O" fromLane="0" toLane="2" dir="s" state="M"/>
    <connection from=":J0_7" to="4O" fromLane="1" toLane="3" dir="s" state="M"/>
    <connection from=":J0_9" to="3O" fromLane="0" toLane="4" dir="l" state="M"/>
    <connection from=":J0_10" to="2O" fromLane="0" toLane="0" dir="r" state="M"/>
    <connection from=":J0_11" to="1O" fromLane="0" toLane="1" dir="s" state="M"/>
    <connection from=":J0_11" to="1O" fromLane="1" toLane="2" dir="s" state="M"/>
    <connection from=":J0_11" to="1O" fromLane="2" toLane="3" dir="s" state="M"/>
    <connection from=":J0_11" to="1O" fromLane="3" toLane="4" dir="s" state="M"/>
    <connection from=":J0_15" to="4O" fromLane="0" toLane="3" dir="l" state="M"/>
    <connection from=":J0_15" to="4O" fromLane="1" toLane="4" dir="l" state="M"/>
    <connection from=":J0_17" to="3O" fromLane="0" toLane="0" dir="r" state="M"/>
    <connection from=":J0_18" to="2O" fromLane="0" toLane="1" dir="s" state="M"/>
    <connection from=":J0_19" to="1O" fromLane="0" toLane="4" dir="l" state="M"/>
    <connection from=":J0_19" to="1O" fromLane="1" toLane="5" dir="l" state="M"/>
    <connection from=":J0_19" to="1O" fromLane="2" toLane="6" dir="l" state="M"/>
    <connection from=":J1_0" to="1I" fromLane="0" toLane="4" dir="t" state="M"/>
    <connection from=":J2_0" to="2I" fromLane="0" toLane="4" dir="t" state="M"/>
    <connection from=":J3_0" to="3I" fromLane="0" toLane="6" dir="t" state="M"/>
    <connection from=":J4_0" to="4I" fromLane="0" toLane="4" dir="t" state="M"/>

</net>
