<?xml version="1.0" encoding="UTF-8"?>

<!-- generated on 2022-04-07 14:05:59 by Eclipse SUMO netconvert Version 1.9.2
<configuration xmlns:xsi="http://www.w3.org/2001/XMLSchema-instance" xsi:noNamespaceSchemaLocation="http://sumo.dlr.de/xsd/netconvertConfiguration.xsd">

    <input>
        <node-files value="network/inputs/input.nod.xml"/>
        <edge-files value="network/inputs/input_5_6_5_7.edg.xml"/>
        <connection-files value="network/inputs/input_rssll_rrslll_rslll_rrsslll.con.xml"/>
        <tllogic-files value="network/inputs/input_rssll_rrslll_rslll_rrsslll.tll.xml"/>
    </input>

    <output>
        <output-file value="network/rssll_rrslll_rslll_rrsslll.net.xml"/>
    </output>

    <report>
        <no-warnings value="true"/>
        <aggregate-warnings value="5"/>
        <log value="network/log/rssll_rrslll_rslll_rrsslll.log.xml"/>
    </report>

</configuration>
-->

<net version="1.9" junctionCornerDetail="5" limitTurnSpeed="5.50" xmlns:xsi="http://www.w3.org/2001/XMLSchema-instance" xsi:noNamespaceSchemaLocation="http://sumo.dlr.de/xsd/net_file.xsd">

    <location netOffset="300.00,300.00" convBoundary="0.00,0.00,600.00,600.00" origBoundary="-300.00,-300.00,300.00,300.00" projParameter="!"/>

    <edge id=":J0_0" function="internal">
        <lane id=":J0_0_0" index="0" speed="6.51" length="9.03" shape="285.60,323.20 285.25,320.75 284.20,319.00 282.45,317.95 280.00,317.60"/>
    </edge>
    <edge id=":J0_1" function="internal">
        <lane id=":J0_1_0" index="0" speed="13.89" length="49.60" shape="288.80,323.20 288.80,273.60"/>
        <lane id=":J0_1_1" index="1" speed="13.89" length="49.60" shape="292.00,323.20 292.00,273.60"/>
    </edge>
    <edge id=":J0_3" function="internal">
        <lane id=":J0_3_0" index="0" speed="13.54" length="42.61" shape="295.20,323.20 296.75,310.95 301.40,302.20 309.15,296.95 320.00,295.20"/>
        <lane id=":J0_3_1" index="1" speed="12.72" length="37.45" shape="298.40,323.20 299.75,312.35 303.80,304.60 310.55,299.95 320.00,298.40"/>
    </edge>
    <edge id=":J0_5" function="internal">
        <lane id=":J0_5_0" index="0" speed="6.51" length="9.03" shape="320.00,317.60 317.55,317.95 315.80,319.00 314.75,320.75 314.40,323.20"/>
        <lane id=":J0_5_1" index="1" speed="8.00" length="14.19" shape="320.00,314.40 316.15,314.95 313.40,316.60 311.75,319.35 311.20,323.20"/>
    </edge>
    <edge id=":J0_7" function="internal">
        <lane id=":J0_7_0" index="0" speed="13.89" length="40.00" shape="320.00,311.20 280.00,311.20"/>
    </edge>
    <edge id=":J0_8" function="internal">
        <lane id=":J0_8_0" index="0" speed="13.89" length="45.76" shape="320.00,308.00 312.07,303.88 302.84,294.13 295.19,282.72 292.00,273.60"/>
        <lane id=":J0_8_1" index="1" speed="13.35" length="41.36" shape="320.00,304.80 312.62,301.17 304.49,292.53 297.91,282.22 295.20,273.60"/>
        <lane id=":J0_8_2" index="2" speed="12.64" length="36.97" shape="320.00,301.60 313.19,298.48 306.15,290.93 300.63,281.72 298.40,273.60"/>
    </edge>
    <edge id=":J0_11" function="internal">
        <lane id=":J0_11_0" index="0" speed="6.51" length="9.03" shape="314.40,273.60 314.75,276.05 315.80,277.80 317.55,278.85 320.00,279.20"/>
    </edge>
    <edge id=":J0_12" function="internal">
        <lane id=":J0_12_0" index="0" speed="13.89" length="49.60" shape="311.20,273.60 311.20,323.20"/>
    </edge>
    <edge id=":J0_13" function="internal">
        <lane id=":J0_13_0" index="0" speed="13.89" length="50.42" shape="308.00,273.60 306.25,288.65 301.00,299.40 292.25,305.85 280.00,308.00"/>
        <lane id=":J0_13_1" index="1" speed="13.89" length="45.27" shape="304.80,273.60 303.25,287.25 298.60,297.00 290.85,302.85 280.00,304.80"/>
        <lane id=":J0_13_2" index="2" speed="13.15" length="40.13" shape="301.60,273.60 300.25,285.85 296.20,294.60 289.45,299.85 280.00,301.60"/>
    </edge>
    <edge id=":J0_16" function="internal">
        <lane id=":J0_16_0" index="0" speed="6.51" length="9.03" shape="280.00,279.20 282.45,278.85 284.20,277.80 285.25,276.05 285.60,273.60"/>
        <lane id=":J0_16_1" index="1" speed="8.00" length="14.19" shape="280.00,282.40 283.85,281.85 286.60,280.20 288.25,277.45 288.80,273.60"/>
    </edge>
    <edge id=":J0_18" function="internal">
        <lane id=":J0_18_0" index="0" speed="13.89" length="40.00" shape="280.00,285.60 320.00,285.60"/>
        <lane id=":J0_18_1" index="1" speed="13.89" length="40.00" shape="280.00,288.80 320.00,288.80"/>
    </edge>
    <edge id=":J0_20" function="internal">
        <lane id=":J0_20_0" index="0" speed="13.68" length="43.47" shape="280.00,292.00 288.12,295.62 297.33,304.27 304.88,314.58 308.00,323.20"/>
        <lane id=":J0_20_1" index="1" speed="12.98" length="39.08" shape="280.00,295.20 287.60,298.32 295.72,305.87 302.17,315.08 304.80,323.20"/>
        <lane id=":J0_20_2" index="2" speed="12.26" length="34.71" shape="280.00,298.40 287.07,301.02 294.08,307.47 299.46,315.58 301.60,323.20"/>
    </edge>
    <edge id=":J1_0" function="internal">
        <lane id=":J1_0_0" index="0" speed="3.65" length="4.67" shape="301.60,600.00 300.80,601.20 300.00,601.60 299.20,601.20 298.40,600.00"/>
    </edge>
    <edge id=":J2_0" function="internal">
        <lane id=":J2_0_0" index="0" speed="3.65" length="4.67" shape="600.00,298.40 601.20,299.20 601.60,300.00 601.20,300.80 600.00,301.60"/>
    </edge>
    <edge id=":J3_0" function="internal">
        <lane id=":J3_0_0" index="0" speed="3.65" length="4.67" shape="298.40,0.00 299.20,-1.20 300.00,-1.60 300.80,-1.20 301.60,0.00"/>
    </edge>
    <edge id=":J4_0" function="internal">
        <lane id=":J4_0_0" index="0" speed="3.65" length="4.67" shape="0.00,301.60 -1.20,300.80 -1.60,300.00 -1.20,299.20 0.00,298.40"/>
    </edge>

    <edge id="1I" from="J1" to="J0" priority="-1">
        <lane id="1I_0" index="0" speed="13.89" length="276.80" shape="285.60,600.00 285.60,323.20"/>
        <lane id="1I_1" index="1" speed="13.89" length="276.80" shape="288.80,600.00 288.80,323.20"/>
        <lane id="1I_2" index="2" speed="13.89" length="276.80" shape="292.00,600.00 292.00,323.20"/>
        <lane id="1I_3" index="3" speed="13.89" length="276.80" shape="295.20,600.00 295.20,323.20"/>
        <lane id="1I_4" index="4" speed="13.89" length="276.80" shape="298.40,600.00 298.40,323.20"/>
    </edge>
    <edge id="1O" from="J0" to="J1" priority="-1">
        <lane id="1O_0" index="0" speed="13.89" length="276.80" shape="314.40,323.20 314.40,600.00"/>
        <lane id="1O_1" index="1" speed="13.89" length="276.80" shape="311.20,323.20 311.20,600.00"/>
        <lane id="1O_2" index="2" speed="13.89" length="276.80" shape="308.00,323.20 308.00,600.00"/>
        <lane id="1O_3" index="3" speed="13.89" length="276.80" shape="304.80,323.20 304.80,600.00"/>
        <lane id="1O_4" index="4" speed="13.89" length="276.80" shape="301.60,323.20 301.60,600.00"/>
    </edge>
    <edge id="2I" from="J2" to="J0" priority="-1">
        <lane id="2I_0" index="0" speed="13.89" length="280.00" shape="600.00,317.60 320.00,317.60"/>
        <lane id="2I_1" index="1" speed="13.89" length="280.00" shape="600.00,314.40 320.00,314.40"/>
        <lane id="2I_2" index="2" speed="13.89" length="280.00" shape="600.00,311.20 320.00,311.20"/>
        <lane id="2I_3" index="3" speed="13.89" length="280.00" shape="600.00,308.00 320.00,308.00"/>
        <lane id="2I_4" index="4" speed="13.89" length="280.00" shape="600.00,304.80 320.00,304.80"/>
        <lane id="2I_5" index="5" speed="13.89" length="280.00" shape="600.00,301.60 320.00,301.60"/>
    </edge>
    <edge id="2O" from="J0" to="J2" priority="-1">
        <lane id="2O_0" index="0" speed="13.89" length="280.00" shape="320.00,279.20 600.00,279.20"/>
        <lane id="2O_1" index="1" speed="13.89" length="280.00" shape="320.00,282.40 600.00,282.40"/>
        <lane id="2O_2" index="2" speed="13.89" length="280.00" shape="320.00,285.60 600.00,285.60"/>
        <lane id="2O_3" index="3" speed="13.89" length="280.00" shape="320.00,288.80 600.00,288.80"/>
        <lane id="2O_4" index="4" speed="13.89" length="280.00" shape="320.00,292.00 600.00,292.00"/>
        <lane id="2O_5" index="5" speed="13.89" length="280.00" shape="320.00,295.20 600.00,295.20"/>
        <lane id="2O_6" index="6" speed="13.89" length="280.00" shape="320.00,298.40 600.00,298.40"/>
    </edge>
    <edge id="3I" from="J3" to="J0" priority="-1">
        <lane id="3I_0" index="0" speed="13.89" length="273.60" shape="314.40,0.00 314.40,273.60"/>
        <lane id="3I_1" index="1" speed="13.89" length="273.60" shape="311.20,0.00 311.20,273.60"/>
        <lane id="3I_2" index="2" speed="13.89" length="273.60" shape="308.00,0.00 308.00,273.60"/>
        <lane id="3I_3" index="3" speed="13.89" length="273.60" shape="304.80,0.00 304.80,273.60"/>
        <lane id="3I_4" index="4" speed="13.89" length="273.60" shape="301.60,0.00 301.60,273.60"/>
    </edge>
    <edge id="3O" from="J0" to="J3" priority="-1">
        <lane id="3O_0" index="0" speed="13.89" length="273.60" shape="285.60,273.60 285.60,0.00"/>
        <lane id="3O_1" index="1" speed="13.89" length="273.60" shape="288.80,273.60 288.80,0.00"/>
        <lane id="3O_2" index="2" speed="13.89" length="273.60" shape="292.00,273.60 292.00,0.00"/>
        <lane id="3O_3" index="3" speed="13.89" length="273.60" shape="295.20,273.60 295.20,0.00"/>
        <lane id="3O_4" index="4" speed="13.89" length="273.60" shape="298.40,273.60 298.40,0.00"/>
    </edge>
    <edge id="4I" from="J4" to="J0" priority="-1">
        <lane id="4I_0" index="0" speed="13.89" length="280.00" shape="0.00,279.20 280.00,279.20"/>
        <lane id="4I_1" index="1" speed="13.89" length="280.00" shape="0.00,282.40 280.00,282.40"/>
        <lane id="4I_2" index="2" speed="13.89" length="280.00" shape="0.00,285.60 280.00,285.60"/>
        <lane id="4I_3" index="3" speed="13.89" length="280.00" shape="0.00,288.80 280.00,288.80"/>
        <lane id="4I_4" index="4" speed="13.89" length="280.00" shape="0.00,292.00 280.00,292.00"/>
        <lane id="4I_5" index="5" speed="13.89" length="280.00" shape="0.00,295.20 280.00,295.20"/>
        <lane id="4I_6" index="6" speed="13.89" length="280.00" shape="0.00,298.40 280.00,298.40"/>
    </edge>
    <edge id="4O" from="J0" to="J4" priority="-1">
        <lane id="4O_0" index="0" speed="13.89" length="280.00" shape="280.00,317.60 0.00,317.60"/>
        <lane id="4O_1" index="1" speed="13.89" length="280.00" shape="280.00,314.40 0.00,314.40"/>
        <lane id="4O_2" index="2" speed="13.89" length="280.00" shape="280.00,311.20 0.00,311.20"/>
        <lane id="4O_3" index="3" speed="13.89" length="280.00" shape="280.00,308.00 0.00,308.00"/>
        <lane id="4O_4" index="4" speed="13.89" length="280.00" shape="280.00,304.80 0.00,304.80"/>
        <lane id="4O_5" index="5" speed="13.89" length="280.00" shape="280.00,301.60 0.00,301.60"/>
    </edge>

    <tlLogic id="J0" type="static" programID="0" offset="0">
        <phase duration="15" state="rrrGGGGrrrrrrGGGGGrrrrr"/>
        <phase duration="3"  state="rrrYYYYrrrrrrYYYYYrrrrr"/>
        <phase duration="15" state="GGGrrrrrrrrGGrrrrrrrrrr"/>
        <phase duration="3"  state="GYYrrrrrrrrGYrrrrrrrrrr"/>
        <phase duration="15" state="GrrrrrrrGGGGrrrrrrrrGGG"/>
        <phase duration="3"  state="YrrrrrrrYYYYrrrrrrrrYYY"/>
        <phase duration="15" state="rrrrrGGGrrrrrrrrGGGGrrr"/>
        <phase duration="3"  state="rrrrrGGYrrrrrrrrGGYYrrr"/>
    </tlLogic>

    <junction id="J0" type="traffic_light" x="300.00" y="300.00" incLanes="1I_0 1I_1 1I_2 1I_3 1I_4 2I_0 2I_1 2I_2 2I_3 2I_4 2I_5 3I_0 3I_1 3I_2 3I_3 3I_4 4I_0 4I_1 4I_2 4I_3 4I_4 4I_5 4I_6" intLanes=":J0_0_0 :J0_1_0 :J0_1_1 :J0_3_0 :J0_3_1 :J0_5_0 :J0_5_1 :J0_7_0 :J0_8_0 :J0_8_1 :J0_8_2 :J0_11_0 :J0_12_0 :J0_13_0 :J0_13_1 :J0_13_2 :J0_16_0 :J0_16_1 :J0_18_0 :J0_18_1 :J0_20_0 :J0_20_1 :J0_20_2" shape="284.00,323.20 316.00,323.20 316.44,320.98 317.00,320.20 317.78,319.64 318.78,319.31 320.00,319.20 320.00,277.60 317.78,277.16 317.00,276.60 316.44,275.82 316.11,274.82 316.00,273.60 284.00,273.60 283.56,275.82 283.00,276.60 282.22,277.16 281.22,277.49 280.00,277.60 280.00,319.20 282.22,319.64 283.00,320.20 283.56,320.98 283.89,321.98">
        <request index="0"  response="00000000000000000000000" foes="00000000000000000000000" cont="0"/>
        <request index="1"  response="11111110000011110000000" foes="11111111110011110000000" cont="0"/>
        <request index="2"  response="11111110000011110000000" foes="11111111110011110000000" cont="0"/>
        <request index="3"  response="11100000001011110000000" foes="11100000001011110000000" cont="0"/>
        <request index="4"  response="11100000001011110000000" foes="11100000001011110000000" cont="0"/>
        <request index="5"  response="00000000000000000000000" foes="00000000001000000000000" cont="0"/>
        <request index="6"  response="00000000000000000000000" foes="00000000001000000000000" cont="0"/>
        <request index="7"  response="00000000000000000000000" foes="11100000001000000011110" cont="0"/>
        <request index="8"  response="00011000000000000000000" foes="00011001111000000011110" cont="0"/>
        <request index="9"  response="00011000000000000000000" foes="00011001111000000011110" cont="0"/>
        <request index="10" response="00011000000000000000000" foes="00011001111000000011110" cont="0"/>
        <request index="11" response="00000000000000000000000" foes="00000000000000000000000" cont="0"/>
        <request index="12" response="00011000000011111100000" foes="00011000000011111111000" cont="0"/>
        <request index="13" response="11111000000011100000110" foes="11111000000011100000110" cont="0"/>
        <request index="14" response="11111000000011100000110" foes="11111000000011100000110" cont="0"/>
        <request index="15" response="11111000000011100000110" foes="11111000000011100000110" cont="0"/>
        <request index="16" response="00000000000000000000000" foes="00000000000000000000110" cont="0"/>
        <request index="17" response="00000000000000000000000" foes="00000000000000000000110" cont="0"/>
        <request index="18" response="00000000000000000000000" foes="00000001111011100000110" cont="0"/>
        <request index="19" response="00000000000000000000000" foes="00000001111011100000110" cont="0"/>
        <request index="20" response="00000000000000010000000" foes="00000001110000010011110" cont="0"/>
        <request index="21" response="00000000000000010000000" foes="00000001110000010011110" cont="0"/>
        <request index="22" response="00000000000000010000000" foes="00000001110000010011110" cont="0"/>
    </junction>
    <junction id="J1" type="priority" x="300.00" y="600.00" incLanes="1O_0 1O_1 1O_2 1O_3 1O_4" intLanes=":J1_0_0" shape="300.00,600.00 316.00,600.00 300.00,600.00">
        <request index="0" response="0" foes="0" cont="0"/>
    </junction>
    <junction id="J2" type="priority" x="600.00" y="300.00" incLanes="2O_0 2O_1 2O_2 2O_3 2O_4 2O_5 2O_6" intLanes=":J2_0_0" shape="600.00,300.00 600.00,277.60 600.00,300.00">
        <request index="0" response="0" foes="0" cont="0"/>
    </junction>
    <junction id="J3" type="priority" x="300.00" y="0.00" incLanes="3O_0 3O_1 3O_2 3O_3 3O_4" intLanes=":J3_0_0" shape="300.00,0.00 284.00,0.00 300.00,0.00">
        <request index="0" response="0" foes="0" cont="0"/>
    </junction>
    <junction id="J4" type="priority" x="0.00" y="300.00" incLanes="4O_0 4O_1 4O_2 4O_3 4O_4 4O_5" intLanes=":J4_0_0" shape="0.00,300.00 0.00,319.20 0.00,300.00">
        <request index="0" response="0" foes="0" cont="0"/>
    </junction>

    <connection from="1I" to="4O" fromLane="0" toLane="0" contPos="0.00" via=":J0_0_0" tl="J0" linkIndex="0" dir="r" state="O"/>
    <connection from="1I" to="3O" fromLane="1" toLane="1" contPos="0.00" via=":J0_1_0" tl="J0" linkIndex="1" dir="s" state="o"/>
    <connection from="1I" to="3O" fromLane="2" toLane="2" contPos="0.00" via=":J0_1_1" tl="J0" linkIndex="2" dir="s" state="o"/>
    <connection from="1I" to="2O" fromLane="3" toLane="5" contPos="0.00" via=":J0_3_0" tl="J0" linkIndex="3" dir="l" state="o"/>
    <connection from="1I" to="2O" fromLane="4" toLane="6" contPos="0.00" via=":J0_3_1" tl="J0" linkIndex="4" dir="l" state="o"/>
    <connection from="1O" to="1I" fromLane="4" toLane="4" via=":J1_0_0" dir="t" state="M"/>
    <connection from="2I" to="1O" fromLane="0" toLane="0" contPos="0.00" via=":J0_5_0" tl="J0" linkIndex="5" dir="r" state="O"/>
    <connection from="2I" to="1O" fromLane="1" toLane="1" contPos="0.00" via=":J0_5_1" tl="J0" linkIndex="6" dir="r" state="O"/>
    <connection from="2I" to="4O" fromLane="2" toLane="2" contPos="0.00" via=":J0_7_0" tl="J0" linkIndex="7" dir="s" state="O"/>
    <connection from="2I" to="3O" fromLane="3" toLane="2" contPos="0.00" via=":J0_8_0" tl="J0" linkIndex="8" dir="l" state="o"/>
    <connection from="2I" to="3O" fromLane="4" toLane="3" contPos="0.00" via=":J0_8_1" tl="J0" linkIndex="9" dir="l" state="o"/>
    <connection from="2I" to="3O" fromLane="5" toLane="4" contPos="0.00" via=":J0_8_2" tl="J0" linkIndex="10" dir="l" state="o"/>
    <connection from="2O" to="2I" fromLane="6" toLane="5" via=":J2_0_0" dir="t" state="M"/>
    <connection from="3I" to="2O" fromLane="0" toLane="0" contPos="0.00" via=":J0_11_0" tl="J0" linkIndex="11" dir="r" state="O"/>
    <connection from="3I" to="1O" fromLane="1" toLane="1" contPos="0.00" via=":J0_12_0" tl="J0" linkIndex="12" dir="s" state="o"/>
    <connection from="3I" to="4O" fromLane="2" toLane="3" contPos="0.00" via=":J0_13_0" tl="J0" linkIndex="13" dir="l" state="o"/>
    <connection from="3I" to="4O" fromLane="3" toLane="4" contPos="0.00" via=":J0_13_1" tl="J0" linkIndex="14" dir="l" state="o"/>
    <connection from="3I" to="4O" fromLane="4" toLane="5" contPos="0.00" via=":J0_13_2" tl="J0" linkIndex="15" dir="l" state="o"/>
    <connection from="3O" to="3I" fromLane="4" toLane="4" via=":J3_0_0" dir="t" state="M"/>
    <connection from="4I" to="3O" fromLane="0" toLane="0" contPos="0.00" via=":J0_16_0" tl="J0" linkIndex="16" dir="r" state="O"/>
    <connection from="4I" to="3O" fromLane="1" toLane="1" contPos="0.00" via=":J0_16_1" tl="J0" linkIndex="17" dir="r" state="O"/>
    <connection from="4I" to="2O" fromLane="2" toLane="2" contPos="0.00" via=":J0_18_0" tl="J0" linkIndex="18" dir="s" state="O"/>
    <connection from="4I" to="2O" fromLane="3" toLane="3" contPos="0.00" via=":J0_18_1" tl="J0" linkIndex="19" dir="s" state="O"/>
    <connection from="4I" to="1O" fromLane="4" toLane="2" contPos="0.00" via=":J0_20_0" tl="J0" linkIndex="20" dir="l" state="o"/>
    <connection from="4I" to="1O" fromLane="5" toLane="3" contPos="0.00" via=":J0_20_1" tl="J0" linkIndex="21" dir="l" state="o"/>
    <connection from="4I" to="1O" fromLane="6" toLane="4" contPos="0.00" via=":J0_20_2" tl="J0" linkIndex="22" dir="l" state="o"/>
    <connection from="4O" to="4I" fromLane="5" toLane="6" via=":J4_0_0" dir="t" state="M"/>

    <connection from=":J0_0" to="4O" fromLane="0" toLane="0" dir="r" state="M"/>
    <connection from=":J0_1" to="3O" fromLane="0" toLane="1" dir="s" state="M"/>
    <connection from=":J0_1" to="3O" fromLane="1" toLane="2" dir="s" state="M"/>
    <connection from=":J0_3" to="2O" fromLane="0" toLane="5" dir="l" state="M"/>
    <connection from=":J0_3" to="2O" fromLane="1" toLane="6" dir="l" state="M"/>
    <connection from=":J0_5" to="1O" fromLane="0" toLane="0" dir="r" state="M"/>
    <connection from=":J0_5" to="1O" fromLane="1" toLane="1" dir="r" state="M"/>
    <connection from=":J0_7" to="4O" fromLane="0" toLane="2" dir="s" state="M"/>
    <connection from=":J0_8" to="3O" fromLane="0" toLane="2" dir="l" state="M"/>
    <connection from=":J0_8" to="3O" fromLane="1" toLane="3" dir="l" state="M"/>
    <connection from=":J0_8" to="3O" fromLane="2" toLane="4" dir="l" state="M"/>
    <connection from=":J0_11" to="2O" fromLane="0" toLane="0" dir="r" state="M"/>
    <connection from=":J0_12" to="1O" fromLane="0" toLane="1" dir="s" state="M"/>
    <connection from=":J0_13" to="4O" fromLane="0" toLane="3" dir="l" state="M"/>
    <connection from=":J0_13" to="4O" fromLane="1" toLane="4" dir="l" state="M"/>
    <connection from=":J0_13" to="4O" fromLane="2" toLane="5" dir="l" state="M"/>
    <connection from=":J0_16" to="3O" fromLane="0" toLane="0" dir="r" state="M"/>
    <connection from=":J0_16" to="3O" fromLane="1" toLane="1" dir="r" state="M"/>
    <connection from=":J0_18" to="2O" fromLane="0" toLane="2" dir="s" state="M"/>
    <connection from=":J0_18" to="2O" fromLane="1" toLane="3" dir="s" state="M"/>
    <connection from=":J0_20" to="1O" fromLane="0" toLane="2" dir="l" state="M"/>
    <connection from=":J0_20" to="1O" fromLane="1" toLane="3" dir="l" state="M"/>
    <connection from=":J0_20" to="1O" fromLane="2" toLane="4" dir="l" state="M"/>
    <connection from=":J1_0" to="1I" fromLane="0" toLane="4" dir="t" state="M"/>
    <connection from=":J2_0" to="2I" fromLane="0" toLane="5" dir="t" state="M"/>
    <connection from=":J3_0" to="3I" fromLane="0" toLane="4" dir="t" state="M"/>
    <connection from=":J4_0" to="4I" fromLane="0" toLane="6" dir="t" state="M"/>

</net>
