<?xml version="1.0" encoding="UTF-8"?>

<!-- generated on 2022-04-07 14:06:38 by Eclipse SUMO netconvert Version 1.9.2
<configuration xmlns:xsi="http://www.w3.org/2001/XMLSchema-instance" xsi:noNamespaceSchemaLocation="http://sumo.dlr.de/xsd/netconvertConfiguration.xsd">

    <input>
        <node-files value="network/inputs/input.nod.xml"/>
        <edge-files value="network/inputs/input_7_4_7_5.edg.xml"/>
        <connection-files value="network/inputs/input_rssslll_rsll_rrsslll_rrsll.con.xml"/>
        <tllogic-files value="network/inputs/input_rssslll_rsll_rrsslll_rrsll.tll.xml"/>
    </input>

    <output>
        <output-file value="network/rssslll_rsll_rrsslll_rrsll.net.xml"/>
    </output>

    <report>
        <no-warnings value="true"/>
        <aggregate-warnings value="5"/>
        <log value="network/log/rssslll_rsll_rrsslll_rrsll.log.xml"/>
    </report>

</configuration>
-->

<net version="1.9" junctionCornerDetail="5" limitTurnSpeed="5.50" xmlns:xsi="http://www.w3.org/2001/XMLSchema-instance" xsi:noNamespaceSchemaLocation="http://sumo.dlr.de/xsd/net_file.xsd">

    <location netOffset="300.00,300.00" convBoundary="0.00,0.00,600.00,600.00" origBoundary="-300.00,-300.00,300.00,300.00" projParameter="!"/>

    <edge id=":J0_0" function="internal">
        <lane id=":J0_0_0" index="0" speed="6.51" length="9.03" shape="279.20,316.80 278.85,314.35 277.80,312.60 276.05,311.55 273.60,311.20"/>
    </edge>
    <edge id=":J0_1" function="internal">
        <lane id=":J0_1_0" index="0" speed="13.89" length="36.80" shape="282.40,316.80 282.40,280.00"/>
        <lane id=":J0_1_1" index="1" speed="13.89" length="36.80" shape="285.60,316.80 285.60,280.00"/>
        <lane id=":J0_1_2" index="2" speed="13.89" length="36.80" shape="288.80,316.80 288.80,280.00"/>
    </edge>
    <edge id=":J0_4" function="internal">
        <lane id=":J0_4_0" index="0" speed="13.72" length="43.74" shape="292.00,316.80 296.12,309.64 305.87,301.48 317.28,294.78 326.40,292.00"/>
        <lane id=":J0_4_1" index="1" speed="13.03" length="39.36" shape="295.20,316.80 298.83,310.22 307.47,303.15 317.78,297.51 326.40,295.20"/>
        <lane id=":J0_4_2" index="2" speed="12.30" length="34.99" shape="298.40,316.80 301.52,310.84 309.07,304.85 318.28,300.25 326.40,298.40"/>
    </edge>
    <edge id=":J0_7" function="internal">
        <lane id=":J0_7_0" index="0" speed="6.51" length="9.03" shape="326.40,311.20 323.95,311.55 322.20,312.60 321.15,314.35 320.80,316.80"/>
    </edge>
    <edge id=":J0_8" function="internal">
        <lane id=":J0_8_0" index="0" speed="13.89" length="52.80" shape="326.40,308.00 273.60,308.00"/>
    </edge>
    <edge id=":J0_9" function="internal">
        <lane id=":J0_9_0" index="0" speed="13.89" length="45.27" shape="326.40,304.80 312.75,303.25 303.00,298.60 297.15,290.85 295.20,280.00"/>
        <lane id=":J0_9_1" index="1" speed="13.15" length="40.13" shape="326.40,301.60 314.15,300.25 305.40,296.20 300.15,289.45 298.40,280.00"/>
    </edge>
    <edge id=":J0_11" function="internal">
        <lane id=":J0_11_0" index="0" speed="6.51" length="9.03" shape="320.80,280.00 321.15,282.45 322.20,284.20 323.95,285.25 326.40,285.60"/>
        <lane id=":J0_11_1" index="1" speed="8.00" length="14.19" shape="317.60,280.00 318.15,283.85 319.80,286.60 322.55,288.25 326.40,288.80"/>
    </edge>
    <edge id=":J0_13" function="internal">
        <lane id=":J0_13_0" index="0" speed="13.89" length="36.80" shape="314.40,280.00 314.40,316.80"/>
        <lane id=":J0_13_1" index="1" speed="13.89" length="36.80" shape="311.20,280.00 311.20,316.80"/>
    </edge>
    <edge id=":J0_15" function="internal">
        <lane id=":J0_15_0" index="0" speed="13.89" length="45.76" shape="308.00,280.00 303.88,287.93 294.13,297.16 282.72,304.81 273.60,308.00"/>
        <lane id=":J0_15_1" index="1" speed="13.35" length="41.36" shape="304.80,280.00 301.17,287.38 292.53,295.51 282.22,302.09 273.60,304.80"/>
        <lane id=":J0_15_2" index="2" speed="12.64" length="36.97" shape="301.60,280.00 298.48,286.81 290.93,293.85 281.72,299.37 273.60,301.60"/>
    </edge>
    <edge id=":J0_18" function="internal">
        <lane id=":J0_18_0" index="0" speed="6.51" length="9.03" shape="273.60,285.60 276.05,285.25 277.80,284.20 278.85,282.45 279.20,280.00"/>
        <lane id=":J0_18_1" index="1" speed="8.00" length="14.19" shape="273.60,288.80 277.45,288.25 280.20,286.60 281.85,283.85 282.40,280.00"/>
    </edge>
    <edge id=":J0_20" function="internal">
        <lane id=":J0_20_0" index="0" speed="13.89" length="52.80" shape="273.60,292.00 326.40,292.00"/>
    </edge>
    <edge id=":J0_21" function="internal">
        <lane id=":J0_21_0" index="0" speed="13.58" length="42.86" shape="273.60,295.20 287.25,296.55 297.00,300.60 302.85,307.35 304.80,316.80"/>
        <lane id=":J0_21_1" index="1" speed="12.76" length="37.73" shape="273.60,298.40 285.85,299.55 294.60,303.00 299.85,308.75 301.60,316.80"/>
    </edge>
    <edge id=":J1_0" function="internal">
        <lane id=":J1_0_0" index="0" speed="3.65" length="4.67" shape="301.60,600.00 300.80,601.20 300.00,601.60 299.20,601.20 298.40,600.00"/>
    </edge>
    <edge id=":J2_0" function="internal">
        <lane id=":J2_0_0" index="0" speed="3.65" length="4.67" shape="600.00,298.40 601.20,299.20 601.60,300.00 601.20,300.80 600.00,301.60"/>
    </edge>
    <edge id=":J3_0" function="internal">
        <lane id=":J3_0_0" index="0" speed="3.65" length="4.67" shape="298.40,0.00 299.20,-1.20 300.00,-1.60 300.80,-1.20 301.60,0.00"/>
    </edge>
    <edge id=":J4_0" function="internal">
        <lane id=":J4_0_0" index="0" speed="3.65" length="4.67" shape="0.00,301.60 -1.20,300.80 -1.60,300.00 -1.20,299.20 0.00,298.40"/>
    </edge>

    <edge id="1I" from="J1" to="J0" priority="-1">
        <lane id="1I_0" index="0" speed="13.89" length="283.20" shape="279.20,600.00 279.20,316.80"/>
        <lane id="1I_1" index="1" speed="13.89" length="283.20" shape="282.40,600.00 282.40,316.80"/>
        <lane id="1I_2" index="2" speed="13.89" length="283.20" shape="285.60,600.00 285.60,316.80"/>
        <lane id="1I_3" index="3" speed="13.89" length="283.20" shape="288.80,600.00 288.80,316.80"/>
        <lane id="1I_4" index="4" speed="13.89" length="283.20" shape="292.00,600.00 292.00,316.80"/>
        <lane id="1I_5" index="5" speed="13.89" length="283.20" shape="295.20,600.00 295.20,316.80"/>
        <lane id="1I_6" index="6" speed="13.89" length="283.20" shape="298.40,600.00 298.40,316.80"/>
    </edge>
    <edge id="1O" from="J0" to="J1" priority="-1">
        <lane id="1O_0" index="0" speed="13.89" length="283.20" shape="320.80,316.80 320.80,600.00"/>
        <lane id="1O_1" index="1" speed="13.89" length="283.20" shape="317.60,316.80 317.60,600.00"/>
        <lane id="1O_2" index="2" speed="13.89" length="283.20" shape="314.40,316.80 314.40,600.00"/>
        <lane id="1O_3" index="3" speed="13.89" length="283.20" shape="311.20,316.80 311.20,600.00"/>
        <lane id="1O_4" index="4" speed="13.89" length="283.20" shape="308.00,316.80 308.00,600.00"/>
        <lane id="1O_5" index="5" speed="13.89" length="283.20" shape="304.80,316.80 304.80,600.00"/>
        <lane id="1O_6" index="6" speed="13.89" length="283.20" shape="301.60,316.80 301.60,600.00"/>
    </edge>
    <edge id="2I" from="J2" to="J0" priority="-1">
        <lane id="2I_0" index="0" speed="13.89" length="273.60" shape="600.00,311.20 326.40,311.20"/>
        <lane id="2I_1" index="1" speed="13.89" length="273.60" shape="600.00,308.00 326.40,308.00"/>
        <lane id="2I_2" index="2" speed="13.89" length="273.60" shape="600.00,304.80 326.40,304.80"/>
        <lane id="2I_3" index="3" speed="13.89" length="273.60" shape="600.00,301.60 326.40,301.60"/>
    </edge>
    <edge id="2O" from="J0" to="J2" priority="-1">
        <lane id="2O_0" index="0" speed="13.89" length="273.60" shape="326.40,285.60 600.00,285.60"/>
        <lane id="2O_1" index="1" speed="13.89" length="273.60" shape="326.40,288.80 600.00,288.80"/>
        <lane id="2O_2" index="2" speed="13.89" length="273.60" shape="326.40,292.00 600.00,292.00"/>
        <lane id="2O_3" index="3" speed="13.89" length="273.60" shape="326.40,295.20 600.00,295.20"/>
        <lane id="2O_4" index="4" speed="13.89" length="273.60" shape="326.40,298.40 600.00,298.40"/>
    </edge>
    <edge id="3I" from="J3" to="J0" priority="-1">
        <lane id="3I_0" index="0" speed="13.89" length="280.00" shape="320.80,0.00 320.80,280.00"/>
        <lane id="3I_1" index="1" speed="13.89" length="280.00" shape="317.60,0.00 317.60,280.00"/>
        <lane id="3I_2" index="2" speed="13.89" length="280.00" shape="314.40,0.00 314.40,280.00"/>
        <lane id="3I_3" index="3" speed="13.89" length="280.00" shape="311.20,0.00 311.20,280.00"/>
        <lane id="3I_4" index="4" speed="13.89" length="280.00" shape="308.00,0.00 308.00,280.00"/>
        <lane id="3I_5" index="5" speed="13.89" length="280.00" shape="304.80,0.00 304.80,280.00"/>
        <lane id="3I_6" index="6" speed="13.89" length="280.00" shape="301.60,0.00 301.60,280.00"/>
    </edge>
    <edge id="3O" from="J0" to="J3" priority="-1">
        <lane id="3O_0" index="0" speed="13.89" length="280.00" shape="279.20,280.00 279.20,0.00"/>
        <lane id="3O_1" index="1" speed="13.89" length="280.00" shape="282.40,280.00 282.40,0.00"/>
        <lane id="3O_2" index="2" speed="13.89" length="280.00" shape="285.60,280.00 285.60,0.00"/>
        <lane id="3O_3" index="3" speed="13.89" length="280.00" shape="288.80,280.00 288.80,0.00"/>
        <lane id="3O_4" index="4" speed="13.89" length="280.00" shape="292.00,280.00 292.00,0.00"/>
        <lane id="3O_5" index="5" speed="13.89" length="280.00" shape="295.20,280.00 295.20,0.00"/>
        <lane id="3O_6" index="6" speed="13.89" length="280.00" shape="298.40,280.00 298.40,0.00"/>
    </edge>
    <edge id="4I" from="J4" to="J0" priority="-1">
        <lane id="4I_0" index="0" speed="13.89" length="273.60" shape="0.00,285.60 273.60,285.60"/>
        <lane id="4I_1" index="1" speed="13.89" length="273.60" shape="0.00,288.80 273.60,288.80"/>
        <lane id="4I_2" index="2" speed="13.89" length="273.60" shape="0.00,292.00 273.60,292.00"/>
        <lane id="4I_3" index="3" speed="13.89" length="273.60" shape="0.00,295.20 273.60,295.20"/>
        <lane id="4I_4" index="4" speed="13.89" length="273.60" shape="0.00,298.40 273.60,298.40"/>
    </edge>
    <edge id="4O" from="J0" to="J4" priority="-1">
        <lane id="4O_0" index="0" speed="13.89" length="273.60" shape="273.60,311.20 0.00,311.20"/>
        <lane id="4O_1" index="1" speed="13.89" length="273.60" shape="273.60,308.00 0.00,308.00"/>
        <lane id="4O_2" index="2" speed="13.89" length="273.60" shape="273.60,304.80 0.00,304.80"/>
        <lane id="4O_3" index="3" speed="13.89" length="273.60" shape="273.60,301.60 0.00,301.60"/>
    </edge>

    <tlLogic id="J0" type="static" programID="0" offset="0">
        <phase duration="15" state="rrrrGGGGrrrrrrrGGGGGrrr"/>
        <phase duration="3"  state="rrrrYYYYrrrrrrrYYYYYrrr"/>
        <phase duration="15" state="GGGGrrrrrrrGGGGrrrrrrrr"/>
        <phase duration="3"  state="GYYYrrrrrrrGGYYrrrrrrrr"/>
        <phase duration="15" state="GrrrrrrrrGGGGrrrrrrrrGG"/>
        <phase duration="3"  state="YrrrrrrrrYYYYrrrrrrrrYY"/>
        <phase duration="15" state="rrrrrrrGGrrrrrrrrrGGGrr"/>
        <phase duration="3"  state="rrrrrrrGYrrrrrrrrrGGYrr"/>
    </tlLogic>

    <junction id="J0" type="traffic_light" x="300.00" y="300.00" incLanes="1I_0 1I_1 1I_2 1I_3 1I_4 1I_5 1I_6 2I_0 2I_1 2I_2 2I_3 3I_0 3I_1 3I_2 3I_3 3I_4 3I_5 3I_6 4I_0 4I_1 4I_2 4I_3 4I_4" intLanes=":J0_0_0 :J0_1_0 :J0_1_1 :J0_1_2 :J0_4_0 :J0_4_1 :J0_4_2 :J0_7_0 :J0_8_0 :J0_9_0 :J0_9_1 :J0_11_0 :J0_11_1 :J0_13_0 :J0_13_1 :J0_15_0 :J0_15_1 :J0_15_2 :J0_18_0 :J0_18_1 :J0_20_0 :J0_21_0 :J0_21_1" shape="277.60,316.80 322.40,316.80 322.84,314.58 323.40,313.80 324.18,313.24 325.18,312.91 326.40,312.80 326.40,284.00 324.18,283.56 323.40,283.00 322.84,282.22 322.51,281.22 322.40,280.00 277.60,280.00 277.16,282.22 276.60,283.00 275.82,283.56 274.82,283.89 273.60,284.00 273.60,312.80 275.82,313.24 276.60,313.80 277.16,314.58 277.49,315.58">
        <request index="0"  response="00000000000000000000000" foes="00000000000000000000000" cont="0"/>
        <request index="1"  response="00000000000000000000000" foes="11111111000000100000000" cont="0"/>
        <request index="2"  response="00000000000000000000000" foes="11111111000000100000000" cont="0"/>
        <request index="3"  response="00000000000000000000000" foes="11111111000000100000000" cont="0"/>
        <request index="4"  response="00000000110000000000000" foes="11100000110011100000000" cont="0"/>
        <request index="5"  response="00000000110000000000000" foes="11100000110011100000000" cont="0"/>
        <request index="6"  response="00000000110000000000000" foes="11100000110011100000000" cont="0"/>
        <request index="7"  response="00000000000000000000000" foes="00000000000000000000000" cont="0"/>
        <request index="8"  response="00000111110000001111110" foes="11000111110000001111110" cont="0"/>
        <request index="9"  response="00100111110000001110000" foes="00100111110000001110000" cont="0"/>
        <request index="10" response="00100111110000001110000" foes="00100111110000001110000" cont="0"/>
        <request index="11" response="00000000000000000000000" foes="00000000000000000000000" cont="0"/>
        <request index="12" response="00000000000000000000000" foes="00000000000000000000000" cont="0"/>
        <request index="13" response="00000000000000000000000" foes="00100000000011101110000" cont="0"/>
        <request index="14" response="00000000000000000000000" foes="00100000000011101110000" cont="0"/>
        <request index="15" response="00000000000000000001110" foes="11100000000011100001110" cont="0"/>
        <request index="16" response="00000000000000000001110" foes="11100000000011100001110" cont="0"/>
        <request index="17" response="00000000000000000001110" foes="11100000000011100001110" cont="0"/>
        <request index="18" response="00000000000000000001110" foes="00000000000000000001110" cont="0"/>
        <request index="19" response="00000000000000000001110" foes="00000000000000000001110" cont="0"/>
        <request index="20" response="00000111110000001111110" foes="00000111110011001111110" cont="0"/>
        <request index="21" response="00000111000000101111110" foes="00000111000000101111110" cont="0"/>
        <request index="22" response="00000111000000101111110" foes="00000111000000101111110" cont="0"/>
    </junction>
    <junction id="J1" type="priority" x="300.00" y="600.00" incLanes="1O_0 1O_1 1O_2 1O_3 1O_4 1O_5 1O_6" intLanes=":J1_0_0" shape="300.00,600.00 322.40,600.00 300.00,600.00">
        <request index="0" response="0" foes="0" cont="0"/>
    </junction>
    <junction id="J2" type="priority" x="600.00" y="300.00" incLanes="2O_0 2O_1 2O_2 2O_3 2O_4" intLanes=":J2_0_0" shape="600.00,300.00 600.00,284.00 600.00,300.00">
        <request index="0" response="0" foes="0" cont="0"/>
    </junction>
    <junction id="J3" type="priority" x="300.00" y="0.00" incLanes="3O_0 3O_1 3O_2 3O_3 3O_4 3O_5 3O_6" intLanes=":J3_0_0" shape="300.00,0.00 277.60,0.00 300.00,0.00">
        <request index="0" response="0" foes="0" cont="0"/>
    </junction>
    <junction id="J4" type="priority" x="0.00" y="300.00" incLanes="4O_0 4O_1 4O_2 4O_3" intLanes=":J4_0_0" shape="0.00,300.00 0.00,312.80 0.00,300.00">
        <request index="0" response="0" foes="0" cont="0"/>
    </junction>

    <connection from="1I" to="4O" fromLane="0" toLane="0" contPos="0.00" via=":J0_0_0" tl="J0" linkIndex="0" dir="r" state="O"/>
    <connection from="1I" to="3O" fromLane="1" toLane="1" contPos="0.00" via=":J0_1_0" tl="J0" linkIndex="1" dir="s" state="O"/>
    <connection from="1I" to="3O" fromLane="2" toLane="2" contPos="0.00" via=":J0_1_1" tl="J0" linkIndex="2" dir="s" state="O"/>
    <connection from="1I" to="3O" fromLane="3" toLane="3" contPos="0.00" via=":J0_1_2" tl="J0" linkIndex="3" dir="s" state="O"/>
    <connection from="1I" to="2O" fromLane="4" toLane="2" contPos="0.00" via=":J0_4_0" tl="J0" linkIndex="4" dir="l" state="o"/>
    <connection from="1I" to="2O" fromLane="5" toLane="3" contPos="0.00" via=":J0_4_1" tl="J0" linkIndex="5" dir="l" state="o"/>
    <connection from="1I" to="2O" fromLane="6" toLane="4" contPos="0.00" via=":J0_4_2" tl="J0" linkIndex="6" dir="l" state="o"/>
    <connection from="1O" to="1I" fromLane="6" toLane="6" via=":J1_0_0" dir="t" state="M"/>
    <connection from="2I" to="1O" fromLane="0" toLane="0" contPos="0.00" via=":J0_7_0" tl="J0" linkIndex="7" dir="r" state="O"/>
    <connection from="2I" to="4O" fromLane="1" toLane="1" contPos="0.00" via=":J0_8_0" tl="J0" linkIndex="8" dir="s" state="o"/>
    <connection from="2I" to="3O" fromLane="2" toLane="5" contPos="0.00" via=":J0_9_0" tl="J0" linkIndex="9" dir="l" state="o"/>
    <connection from="2I" to="3O" fromLane="3" toLane="6" contPos="0.00" via=":J0_9_1" tl="J0" linkIndex="10" dir="l" state="o"/>
    <connection from="2O" to="2I" fromLane="4" toLane="3" via=":J2_0_0" dir="t" state="M"/>
    <connection from="3I" to="2O" fromLane="0" toLane="0" contPos="0.00" via=":J0_11_0" tl="J0" linkIndex="11" dir="r" state="O"/>
    <connection from="3I" to="2O" fromLane="1" toLane="1" contPos="0.00" via=":J0_11_1" tl="J0" linkIndex="12" dir="r" state="O"/>
    <connection from="3I" to="1O" fromLane="2" toLane="2" contPos="0.00" via=":J0_13_0" tl="J0" linkIndex="13" dir="s" state="O"/>
    <connection from="3I" to="1O" fromLane="3" toLane="3" contPos="0.00" via=":J0_13_1" tl="J0" linkIndex="14" dir="s" state="O"/>
    <connection from="3I" to="4O" fromLane="4" toLane="1" contPos="0.00" via=":J0_15_0" tl="J0" linkIndex="15" dir="l" state="o"/>
    <connection from="3I" to="4O" fromLane="5" toLane="2" contPos="0.00" via=":J0_15_1" tl="J0" linkIndex="16" dir="l" state="o"/>
    <connection from="3I" to="4O" fromLane="6" toLane="3" contPos="0.00" via=":J0_15_2" tl="J0" linkIndex="17" dir="l" state="o"/>
    <connection from="3O" to="3I" fromLane="6" toLane="6" via=":J3_0_0" dir="t" state="M"/>
    <connection from="4I" to="3O" fromLane="0" toLane="0" contPos="0.00" via=":J0_18_0" tl="J0" linkIndex="18" dir="r" state="o"/>
    <connection from="4I" to="3O" fromLane="1" toLane="1" contPos="0.00" via=":J0_18_1" tl="J0" linkIndex="19" dir="r" state="o"/>
    <connection from="4I" to="2O" fromLane="2" toLane="2" contPos="0.00" via=":J0_20_0" tl="J0" linkIndex="20" dir="s" state="o"/>
    <connection from="4I" to="1O" fromLane="3" toLane="5" contPos="0.00" via=":J0_21_0" tl="J0" linkIndex="21" dir="l" state="o"/>
    <connection from="4I" to="1O" fromLane="4" toLane="6" contPos="0.00" via=":J0_21_1" tl="J0" linkIndex="22" dir="l" state="o"/>
    <connection from="4O" to="4I" fromLane="3" toLane="4" via=":J4_0_0" dir="t" state="M"/>

    <connection from=":J0_0" to="4O" fromLane="0" toLane="0" dir="r" state="M"/>
    <connection from=":J0_1" to="3O" fromLane="0" toLane="1" dir="s" state="M"/>
    <connection from=":J0_1" to="3O" fromLane="1" toLane="2" dir="s" state="M"/>
    <connection from=":J0_1" to="3O" fromLane="2" toLane="3" dir="s" state="M"/>
    <connection from=":J0_4" to="2O" fromLane="0" toLane="2" dir="l" state="M"/>
    <connection from=":J0_4" to="2O" fromLane="1" toLane="3" dir="l" state="M"/>
    <connection from=":J0_4" to="2O" fromLane="2" toLane="4" dir="l" state="M"/>
    <connection from=":J0_7" to="1O" fromLane="0" toLane="0" dir="r" state="M"/>
    <connection from=":J0_8" to="4O" fromLane="0" toLane="1" dir="s" state="M"/>
    <connection from=":J0_9" to="3O" fromLane="0" toLane="5" dir="l" state="M"/>
    <connection from=":J0_9" to="3O" fromLane="1" toLane="6" dir="l" state="M"/>
    <connection from=":J0_11" to="2O" fromLane="0" toLane="0" dir="r" state="M"/>
    <connection from=":J0_11" to="2O" fromLane="1" toLane="1" dir="r" state="M"/>
    <connection from=":J0_13" to="1O" fromLane="0" toLane="2" dir="s" state="M"/>
    <connection from=":J0_13" to="1O" fromLane="1" toLane="3" dir="s" state="M"/>
    <connection from=":J0_15" to="4O" fromLane="0" toLane="1" dir="l" state="M"/>
    <connection from=":J0_15" to="4O" fromLane="1" toLane="2" dir="l" state="M"/>
    <connection from=":J0_15" to="4O" fromLane="2" toLane="3" dir="l" state="M"/>
    <connection from=":J0_18" to="3O" fromLane="0" toLane="0" dir="r" state="M"/>
    <connection from=":J0_18" to="3O" fromLane="1" toLane="1" dir="r" state="M"/>
    <connection from=":J0_20" to="2O" fromLane="0" toLane="2" dir="s" state="M"/>
    <connection from=":J0_21" to="1O" fromLane="0" toLane="5" dir="l" state="M"/>
    <connection from=":J0_21" to="1O" fromLane="1" toLane="6" dir="l" state="M"/>
    <connection from=":J1_0" to="1I" fromLane="0" toLane="6" dir="t" state="M"/>
    <connection from=":J2_0" to="2I" fromLane="0" toLane="3" dir="t" state="M"/>
    <connection from=":J3_0" to="3I" fromLane="0" toLane="6" dir="t" state="M"/>
    <connection from=":J4_0" to="4I" fromLane="0" toLane="4" dir="t" state="M"/>

</net>
