<?xml version="1.0" encoding="UTF-8"?>

<!-- generated on 2022-04-07 14:06:19 by Eclipse SUMO netconvert Version 1.9.2
<configuration xmlns:xsi="http://www.w3.org/2001/XMLSchema-instance" xsi:noNamespaceSchemaLocation="http://sumo.dlr.de/xsd/netconvertConfiguration.xsd">

    <input>
        <node-files value="network/inputs/input.nod.xml"/>
        <edge-files value="network/inputs/input_6_5_6_7.edg.xml"/>
        <connection-files value="network/inputs/input_rsssll_rslll_rrssll_rrsssll.con.xml"/>
        <tllogic-files value="network/inputs/input_rsssll_rslll_rrssll_rrsssll.tll.xml"/>
    </input>

    <output>
        <output-file value="network/rsssll_rslll_rrssll_rrsssll.net.xml"/>
    </output>

    <report>
        <no-warnings value="true"/>
        <aggregate-warnings value="5"/>
        <log value="network/log/rsssll_rslll_rrssll_rrsssll.log.xml"/>
    </report>

</configuration>
-->

<net version="1.9" junctionCornerDetail="5" limitTurnSpeed="5.50" xmlns:xsi="http://www.w3.org/2001/XMLSchema-instance" xsi:noNamespaceSchemaLocation="http://sumo.dlr.de/xsd/net_file.xsd">

    <location netOffset="300.00,300.00" convBoundary="0.00,0.00,600.00,600.00" origBoundary="-300.00,-300.00,300.00,300.00" projParameter="!"/>

    <edge id=":J0_0" function="internal">
        <lane id=":J0_0_0" index="0" speed="6.51" length="9.03" shape="282.40,320.00 282.05,317.55 281.00,315.80 279.25,314.75 276.80,314.40"/>
    </edge>
    <edge id=":J0_1" function="internal">
        <lane id=":J0_1_0" index="0" speed="13.89" length="46.40" shape="285.60,320.00 285.60,273.60"/>
        <lane id=":J0_1_1" index="1" speed="13.89" length="46.40" shape="288.80,320.00 288.80,273.60"/>
        <lane id=":J0_1_2" index="2" speed="13.89" length="46.40" shape="292.00,320.00 292.00,273.60"/>
    </edge>
    <edge id=":J0_4" function="internal">
        <lane id=":J0_4_0" index="0" speed="13.54" length="42.61" shape="295.20,320.00 296.95,309.15 302.20,301.40 310.95,296.75 323.20,295.20"/>
        <lane id=":J0_4_1" index="1" speed="12.72" length="37.45" shape="298.40,320.00 299.95,310.55 304.60,303.80 312.35,299.75 323.20,298.40"/>
    </edge>
    <edge id=":J0_6" function="internal">
        <lane id=":J0_6_0" index="0" speed="6.51" length="9.03" shape="323.20,314.40 320.75,314.75 319.00,315.80 317.95,317.55 317.60,320.00"/>
    </edge>
    <edge id=":J0_7" function="internal">
        <lane id=":J0_7_0" index="0" speed="13.89" length="46.40" shape="323.20,311.20 276.80,311.20"/>
    </edge>
    <edge id=":J0_8" function="internal">
        <lane id=":J0_8_0" index="0" speed="13.89" length="52.92" shape="323.20,308.00 309.55,305.85 299.80,299.40 293.95,288.65 292.00,273.60"/>
        <lane id=":J0_8_1" index="1" speed="13.89" length="47.77" shape="323.20,304.80 310.95,302.85 302.20,297.00 296.95,287.25 295.20,273.60"/>
        <lane id=":J0_8_2" index="2" speed="13.54" length="42.61" shape="323.20,301.60 312.35,299.85 304.60,294.60 299.95,285.85 298.40,273.60"/>
    </edge>
    <edge id=":J0_11" function="internal">
        <lane id=":J0_11_0" index="0" speed="6.51" length="9.03" shape="317.60,273.60 317.95,276.05 319.00,277.80 320.75,278.85 323.20,279.20"/>
        <lane id=":J0_11_1" index="1" speed="8.00" length="14.19" shape="314.40,273.60 314.95,277.45 316.60,280.20 319.35,281.85 323.20,282.40"/>
    </edge>
    <edge id=":J0_13" function="internal">
        <lane id=":J0_13_0" index="0" speed="13.89" length="46.40" shape="311.20,273.60 311.20,320.00"/>
        <lane id=":J0_13_1" index="1" speed="13.89" length="46.40" shape="308.00,273.60 308.00,320.00"/>
    </edge>
    <edge id=":J0_15" function="internal">
        <lane id=":J0_15_0" index="0" speed="13.89" length="47.77" shape="304.80,273.60 303.05,287.25 297.80,297.00 289.05,302.85 276.80,304.80"/>
        <lane id=":J0_15_1" index="1" speed="13.54" length="42.61" shape="301.60,273.60 300.05,285.85 295.40,294.60 287.65,299.85 276.80,301.60"/>
    </edge>
    <edge id=":J0_17" function="internal">
        <lane id=":J0_17_0" index="0" speed="6.51" length="9.03" shape="276.80,279.20 279.25,278.85 281.00,277.80 282.05,276.05 282.40,273.60"/>
        <lane id=":J0_17_1" index="1" speed="8.00" length="14.19" shape="276.80,282.40 280.65,281.85 283.40,280.20 285.05,277.45 285.60,273.60"/>
    </edge>
    <edge id=":J0_19" function="internal">
        <lane id=":J0_19_0" index="0" speed="13.89" length="46.40" shape="276.80,285.60 323.20,285.60"/>
        <lane id=":J0_19_1" index="1" speed="13.89" length="46.40" shape="276.80,288.80 323.20,288.80"/>
        <lane id=":J0_19_2" index="2" speed="13.89" length="46.40" shape="276.80,292.00 323.20,292.00"/>
    </edge>
    <edge id=":J0_22" function="internal">
        <lane id=":J0_22_0" index="0" speed="13.54" length="42.61" shape="276.80,295.20 289.05,296.75 297.80,301.40 303.05,309.15 304.80,320.00"/>
        <lane id=":J0_22_1" index="1" speed="12.72" length="37.45" shape="276.80,298.40 287.65,299.75 295.40,303.80 300.05,310.55 301.60,320.00"/>
    </edge>
    <edge id=":J1_0" function="internal">
        <lane id=":J1_0_0" index="0" speed="3.65" length="4.67" shape="301.60,600.00 300.80,601.20 300.00,601.60 299.20,601.20 298.40,600.00"/>
    </edge>
    <edge id=":J2_0" function="internal">
        <lane id=":J2_0_0" index="0" speed="3.65" length="4.67" shape="600.00,298.40 601.20,299.20 601.60,300.00 601.20,300.80 600.00,301.60"/>
    </edge>
    <edge id=":J3_0" function="internal">
        <lane id=":J3_0_0" index="0" speed="3.65" length="4.67" shape="298.40,0.00 299.20,-1.20 300.00,-1.60 300.80,-1.20 301.60,0.00"/>
    </edge>
    <edge id=":J4_0" function="internal">
        <lane id=":J4_0_0" index="0" speed="3.65" length="4.67" shape="0.00,301.60 -1.20,300.80 -1.60,300.00 -1.20,299.20 0.00,298.40"/>
    </edge>

    <edge id="1I" from="J1" to="J0" priority="-1">
        <lane id="1I_0" index="0" speed="13.89" length="280.00" shape="282.40,600.00 282.40,320.00"/>
        <lane id="1I_1" index="1" speed="13.89" length="280.00" shape="285.60,600.00 285.60,320.00"/>
        <lane id="1I_2" index="2" speed="13.89" length="280.00" shape="288.80,600.00 288.80,320.00"/>
        <lane id="1I_3" index="3" speed="13.89" length="280.00" shape="292.00,600.00 292.00,320.00"/>
        <lane id="1I_4" index="4" speed="13.89" length="280.00" shape="295.20,600.00 295.20,320.00"/>
        <lane id="1I_5" index="5" speed="13.89" length="280.00" shape="298.40,600.00 298.40,320.00"/>
    </edge>
    <edge id="1O" from="J0" to="J1" priority="-1">
        <lane id="1O_0" index="0" speed="13.89" length="280.00" shape="317.60,320.00 317.60,600.00"/>
        <lane id="1O_1" index="1" speed="13.89" length="280.00" shape="314.40,320.00 314.40,600.00"/>
        <lane id="1O_2" index="2" speed="13.89" length="280.00" shape="311.20,320.00 311.20,600.00"/>
        <lane id="1O_3" index="3" speed="13.89" length="280.00" shape="308.00,320.00 308.00,600.00"/>
        <lane id="1O_4" index="4" speed="13.89" length="280.00" shape="304.80,320.00 304.80,600.00"/>
        <lane id="1O_5" index="5" speed="13.89" length="280.00" shape="301.60,320.00 301.60,600.00"/>
    </edge>
    <edge id="2I" from="J2" to="J0" priority="-1">
        <lane id="2I_0" index="0" speed="13.89" length="276.80" shape="600.00,314.40 323.20,314.40"/>
        <lane id="2I_1" index="1" speed="13.89" length="276.80" shape="600.00,311.20 323.20,311.20"/>
        <lane id="2I_2" index="2" speed="13.89" length="276.80" shape="600.00,308.00 323.20,308.00"/>
        <lane id="2I_3" index="3" speed="13.89" length="276.80" shape="600.00,304.80 323.20,304.80"/>
        <lane id="2I_4" index="4" speed="13.89" length="276.80" shape="600.00,301.60 323.20,301.60"/>
    </edge>
    <edge id="2O" from="J0" to="J2" priority="-1">
        <lane id="2O_0" index="0" speed="13.89" length="276.80" shape="323.20,279.20 600.00,279.20"/>
        <lane id="2O_1" index="1" speed="13.89" length="276.80" shape="323.20,282.40 600.00,282.40"/>
        <lane id="2O_2" index="2" speed="13.89" length="276.80" shape="323.20,285.60 600.00,285.60"/>
        <lane id="2O_3" index="3" speed="13.89" length="276.80" shape="323.20,288.80 600.00,288.80"/>
        <lane id="2O_4" index="4" speed="13.89" length="276.80" shape="323.20,292.00 600.00,292.00"/>
        <lane id="2O_5" index="5" speed="13.89" length="276.80" shape="323.20,295.20 600.00,295.20"/>
        <lane id="2O_6" index="6" speed="13.89" length="276.80" shape="323.20,298.40 600.00,298.40"/>
    </edge>
    <edge id="3I" from="J3" to="J0" priority="-1">
        <lane id="3I_0" index="0" speed="13.89" length="273.60" shape="317.60,0.00 317.60,273.60"/>
        <lane id="3I_1" index="1" speed="13.89" length="273.60" shape="314.40,0.00 314.40,273.60"/>
        <lane id="3I_2" index="2" speed="13.89" length="273.60" shape="311.20,0.00 311.20,273.60"/>
        <lane id="3I_3" index="3" speed="13.89" length="273.60" shape="308.00,0.00 308.00,273.60"/>
        <lane id="3I_4" index="4" speed="13.89" length="273.60" shape="304.80,0.00 304.80,273.60"/>
        <lane id="3I_5" index="5" speed="13.89" length="273.60" shape="301.60,0.00 301.60,273.60"/>
    </edge>
    <edge id="3O" from="J0" to="J3" priority="-1">
        <lane id="3O_0" index="0" speed="13.89" length="273.60" shape="282.40,273.60 282.40,0.00"/>
        <lane id="3O_1" index="1" speed="13.89" length="273.60" shape="285.60,273.60 285.60,0.00"/>
        <lane id="3O_2" index="2" speed="13.89" length="273.60" shape="288.80,273.60 288.80,0.00"/>
        <lane id="3O_3" index="3" speed="13.89" length="273.60" shape="292.00,273.60 292.00,0.00"/>
        <lane id="3O_4" index="4" speed="13.89" length="273.60" shape="295.20,273.60 295.20,0.00"/>
        <lane id="3O_5" index="5" speed="13.89" length="273.60" shape="298.40,273.60 298.40,0.00"/>
    </edge>
    <edge id="4I" from="J4" to="J0" priority="-1">
        <lane id="4I_0" index="0" speed="13.89" length="276.80" shape="0.00,279.20 276.80,279.20"/>
        <lane id="4I_1" index="1" speed="13.89" length="276.80" shape="0.00,282.40 276.80,282.40"/>
        <lane id="4I_2" index="2" speed="13.89" length="276.80" shape="0.00,285.60 276.80,285.60"/>
        <lane id="4I_3" index="3" speed="13.89" length="276.80" shape="0.00,288.80 276.80,288.80"/>
        <lane id="4I_4" index="4" speed="13.89" length="276.80" shape="0.00,292.00 276.80,292.00"/>
        <lane id="4I_5" index="5" speed="13.89" length="276.80" shape="0.00,295.20 276.80,295.20"/>
        <lane id="4I_6" index="6" speed="13.89" length="276.80" shape="0.00,298.40 276.80,298.40"/>
    </edge>
    <edge id="4O" from="J0" to="J4" priority="-1">
        <lane id="4O_0" index="0" speed="13.89" length="276.80" shape="276.80,314.40 0.00,314.40"/>
        <lane id="4O_1" index="1" speed="13.89" length="276.80" shape="276.80,311.20 0.00,311.20"/>
        <lane id="4O_2" index="2" speed="13.89" length="276.80" shape="276.80,308.00 0.00,308.00"/>
        <lane id="4O_3" index="3" speed="13.89" length="276.80" shape="276.80,304.80 0.00,304.80"/>
        <lane id="4O_4" index="4" speed="13.89" length="276.80" shape="276.80,301.60 0.00,301.60"/>
    </edge>

    <tlLogic id="J0" type="static" programID="0" offset="0">
        <phase duration="15" state="rrrrGGGrrrrrrrrGGGGrrrrr"/>
        <phase duration="3"  state="rrrrYYYrrrrrrrrYYYYrrrrr"/>
        <phase duration="15" state="GGGGrrrrrrrGGGGrrrrrrrrr"/>
        <phase duration="3"  state="GYYYrrrrrrrGGYYrrrrrrrrr"/>
        <phase duration="15" state="GrrrrrrrGGGGGrrrrrrrrrGG"/>
        <phase duration="3"  state="YrrrrrrrYYYYYrrrrrrrrrYY"/>
        <phase duration="15" state="rrrrrrGGrrrrrrrrrGGGGGrr"/>
        <phase duration="3"  state="rrrrrrGYrrrrrrrrrGGYYYrr"/>
    </tlLogic>

    <junction id="J0" type="traffic_light" x="300.00" y="300.00" incLanes="1I_0 1I_1 1I_2 1I_3 1I_4 1I_5 2I_0 2I_1 2I_2 2I_3 2I_4 3I_0 3I_1 3I_2 3I_3 3I_4 3I_5 4I_0 4I_1 4I_2 4I_3 4I_4 4I_5 4I_6" intLanes=":J0_0_0 :J0_1_0 :J0_1_1 :J0_1_2 :J0_4_0 :J0_4_1 :J0_6_0 :J0_7_0 :J0_8_0 :J0_8_1 :J0_8_2 :J0_11_0 :J0_11_1 :J0_13_0 :J0_13_1 :J0_15_0 :J0_15_1 :J0_17_0 :J0_17_1 :J0_19_0 :J0_19_1 :J0_19_2 :J0_22_0 :J0_22_1" shape="280.80,320.00 319.20,320.00 319.64,317.78 320.20,317.00 320.98,316.44 321.98,316.11 323.20,316.00 323.20,277.60 320.98,277.16 320.20,276.60 319.64,275.82 319.31,274.82 319.20,273.60 280.80,273.60 280.36,275.82 279.80,276.60 279.02,277.16 278.02,277.49 276.80,277.60 276.80,316.00 279.02,316.44 279.80,317.00 280.36,317.78 280.69,318.78">
        <request index="0"  response="000000000000000000000000" foes="000000000000000000000000" cont="0"/>
        <request index="1"  response="111111100000011110000000" foes="111111111000011110000000" cont="0"/>
        <request index="2"  response="111111100000011110000000" foes="111111111000011110000000" cont="0"/>
        <request index="3"  response="111111100000011110000000" foes="111111111000011110000000" cont="0"/>
        <request index="4"  response="110000000110011110000000" foes="110000000110011110000000" cont="0"/>
        <request index="5"  response="110000000110011110000000" foes="110000000110011110000000" cont="0"/>
        <request index="6"  response="000000000000000000000000" foes="000000000000000000000000" cont="0"/>
        <request index="7"  response="000000000000000000000000" foes="110000000110000000111110" cont="0"/>
        <request index="8"  response="001110000000000000000000" foes="001110011110000000111110" cont="0"/>
        <request index="9"  response="001110000000000000000000" foes="001110011110000000111110" cont="0"/>
        <request index="10" response="001110000000000000000000" foes="001110011110000000111110" cont="0"/>
        <request index="11" response="000000000000000000000000" foes="000000000000000000000000" cont="0"/>
        <request index="12" response="000000000000000000000000" foes="000000000000000000000000" cont="0"/>
        <request index="13" response="001110000000011110000000" foes="001110000000011110110000" cont="0"/>
        <request index="14" response="001110000000011110000000" foes="001110000000011110110000" cont="0"/>
        <request index="15" response="111110000000011100001110" foes="111110000000011100001110" cont="0"/>
        <request index="16" response="111110000000011100001110" foes="111110000000011100001110" cont="0"/>
        <request index="17" response="000000000000000000000000" foes="000000000000000000001110" cont="0"/>
        <request index="18" response="000000000000000000000000" foes="000000000000000000001110" cont="0"/>
        <request index="19" response="000000000000000000000000" foes="000000011110011100001110" cont="0"/>
        <request index="20" response="000000000000000000000000" foes="000000011110011100001110" cont="0"/>
        <request index="21" response="000000000000000000000000" foes="000000011110011100001110" cont="0"/>
        <request index="22" response="000000000000000010000000" foes="000000011000000010111110" cont="0"/>
        <request index="23" response="000000000000000010000000" foes="000000011000000010111110" cont="0"/>
    </junction>
    <junction id="J1" type="priority" x="300.00" y="600.00" incLanes="1O_0 1O_1 1O_2 1O_3 1O_4 1O_5" intLanes=":J1_0_0" shape="300.00,600.00 319.20,600.00 300.00,600.00">
        <request index="0" response="0" foes="0" cont="0"/>
    </junction>
    <junction id="J2" type="priority" x="600.00" y="300.00" incLanes="2O_0 2O_1 2O_2 2O_3 2O_4 2O_5 2O_6" intLanes=":J2_0_0" shape="600.00,300.00 600.00,277.60 600.00,300.00">
        <request index="0" response="0" foes="0" cont="0"/>
    </junction>
    <junction id="J3" type="priority" x="300.00" y="0.00" incLanes="3O_0 3O_1 3O_2 3O_3 3O_4 3O_5" intLanes=":J3_0_0" shape="300.00,0.00 280.80,0.00 300.00,0.00">
        <request index="0" response="0" foes="0" cont="0"/>
    </junction>
    <junction id="J4" type="priority" x="0.00" y="300.00" incLanes="4O_0 4O_1 4O_2 4O_3 4O_4" intLanes=":J4_0_0" shape="0.00,300.00 0.00,316.00 0.00,300.00">
        <request index="0" response="0" foes="0" cont="0"/>
    </junction>

    <connection from="1I" to="4O" fromLane="0" toLane="0" contPos="0.00" via=":J0_0_0" tl="J0" linkIndex="0" dir="r" state="O"/>
    <connection from="1I" to="3O" fromLane="1" toLane="1" contPos="0.00" via=":J0_1_0" tl="J0" linkIndex="1" dir="s" state="o"/>
    <connection from="1I" to="3O" fromLane="2" toLane="2" contPos="0.00" via=":J0_1_1" tl="J0" linkIndex="2" dir="s" state="o"/>
    <connection from="1I" to="3O" fromLane="3" toLane="3" contPos="0.00" via=":J0_1_2" tl="J0" linkIndex="3" dir="s" state="o"/>
    <connection from="1I" to="2O" fromLane="4" toLane="5" contPos="0.00" via=":J0_4_0" tl="J0" linkIndex="4" dir="l" state="o"/>
    <connection from="1I" to="2O" fromLane="5" toLane="6" contPos="0.00" via=":J0_4_1" tl="J0" linkIndex="5" dir="l" state="o"/>
    <connection from="1O" to="1I" fromLane="5" toLane="5" via=":J1_0_0" dir="t" state="M"/>
    <connection from="2I" to="1O" fromLane="0" toLane="0" contPos="0.00" via=":J0_6_0" tl="J0" linkIndex="6" dir="r" state="O"/>
    <connection from="2I" to="4O" fromLane="1" toLane="1" contPos="0.00" via=":J0_7_0" tl="J0" linkIndex="7" dir="s" state="O"/>
    <connection from="2I" to="3O" fromLane="2" toLane="3" contPos="0.00" via=":J0_8_0" tl="J0" linkIndex="8" dir="l" state="o"/>
    <connection from="2I" to="3O" fromLane="3" toLane="4" contPos="0.00" via=":J0_8_1" tl="J0" linkIndex="9" dir="l" state="o"/>
    <connection from="2I" to="3O" fromLane="4" toLane="5" contPos="0.00" via=":J0_8_2" tl="J0" linkIndex="10" dir="l" state="o"/>
    <connection from="2O" to="2I" fromLane="6" toLane="4" via=":J2_0_0" dir="t" state="M"/>
    <connection from="3I" to="2O" fromLane="0" toLane="0" contPos="0.00" via=":J0_11_0" tl="J0" linkIndex="11" dir="r" state="O"/>
    <connection from="3I" to="2O" fromLane="1" toLane="1" contPos="0.00" via=":J0_11_1" tl="J0" linkIndex="12" dir="r" state="O"/>
    <connection from="3I" to="1O" fromLane="2" toLane="2" contPos="0.00" via=":J0_13_0" tl="J0" linkIndex="13" dir="s" state="o"/>
    <connection from="3I" to="1O" fromLane="3" toLane="3" contPos="0.00" via=":J0_13_1" tl="J0" linkIndex="14" dir="s" state="o"/>
    <connection from="3I" to="4O" fromLane="4" toLane="3" contPos="0.00" via=":J0_15_0" tl="J0" linkIndex="15" dir="l" state="o"/>
    <connection from="3I" to="4O" fromLane="5" toLane="4" contPos="0.00" via=":J0_15_1" tl="J0" linkIndex="16" dir="l" state="o"/>
    <connection from="3O" to="3I" fromLane="5" toLane="5" via=":J3_0_0" dir="t" state="M"/>
    <connection from="4I" to="3O" fromLane="0" toLane="0" contPos="0.00" via=":J0_17_0" tl="J0" linkIndex="17" dir="r" state="O"/>
    <connection from="4I" to="3O" fromLane="1" toLane="1" contPos="0.00" via=":J0_17_1" tl="J0" linkIndex="18" dir="r" state="O"/>
    <connection from="4I" to="2O" fromLane="2" toLane="2" contPos="0.00" via=":J0_19_0" tl="J0" linkIndex="19" dir="s" state="O"/>
    <connection from="4I" to="2O" fromLane="3" toLane="3" contPos="0.00" via=":J0_19_1" tl="J0" linkIndex="20" dir="s" state="O"/>
    <connection from="4I" to="2O" fromLane="4" toLane="4" contPos="0.00" via=":J0_19_2" tl="J0" linkIndex="21" dir="s" state="O"/>
    <connection from="4I" to="1O" fromLane="5" toLane="4" contPos="0.00" via=":J0_22_0" tl="J0" linkIndex="22" dir="l" state="o"/>
    <connection from="4I" to="1O" fromLane="6" toLane="5" contPos="0.00" via=":J0_22_1" tl="J0" linkIndex="23" dir="l" state="o"/>
    <connection from="4O" to="4I" fromLane="4" toLane="6" via=":J4_0_0" dir="t" state="M"/>

    <connection from=":J0_0" to="4O" fromLane="0" toLane="0" dir="r" state="M"/>
    <connection from=":J0_1" to="3O" fromLane="0" toLane="1" dir="s" state="M"/>
    <connection from=":J0_1" to="3O" fromLane="1" toLane="2" dir="s" state="M"/>
    <connection from=":J0_1" to="3O" fromLane="2" toLane="3" dir="s" state="M"/>
    <connection from=":J0_4" to="2O" fromLane="0" toLane="5" dir="l" state="M"/>
    <connection from=":J0_4" to="2O" fromLane="1" toLane="6" dir="l" state="M"/>
    <connection from=":J0_6" to="1O" fromLane="0" toLane="0" dir="r" state="M"/>
    <connection from=":J0_7" to="4O" fromLane="0" toLane="1" dir="s" state="M"/>
    <connection from=":J0_8" to="3O" fromLane="0" toLane="3" dir="l" state="M"/>
    <connection from=":J0_8" to="3O" fromLane="1" toLane="4" dir="l" state="M"/>
    <connection from=":J0_8" to="3O" fromLane="2" toLane="5" dir="l" state="M"/>
    <connection from=":J0_11" to="2O" fromLane="0" toLane="0" dir="r" state="M"/>
    <connection from=":J0_11" to="2O" fromLane="1" toLane="1" dir="r" state="M"/>
    <connection from=":J0_13" to="1O" fromLane="0" toLane="2" dir="s" state="M"/>
    <connection from=":J0_13" to="1O" fromLane="1" toLane="3" dir="s" state="M"/>
    <connection from=":J0_15" to="4O" fromLane="0" toLane="3" dir="l" state="M"/>
    <connection from=":J0_15" to="4O" fromLane="1" toLane="4" dir="l" state="M"/>
    <connection from=":J0_17" to="3O" fromLane="0" toLane="0" dir="r" state="M"/>
    <connection from=":J0_17" to="3O" fromLane="1" toLane="1" dir="r" state="M"/>
    <connection from=":J0_19" to="2O" fromLane="0" toLane="2" dir="s" state="M"/>
    <connection from=":J0_19" to="2O" fromLane="1" toLane="3" dir="s" state="M"/>
    <connection from=":J0_19" to="2O" fromLane="2" toLane="4" dir="s" state="M"/>
    <connection from=":J0_22" to="1O" fromLane="0" toLane="4" dir="l" state="M"/>
    <connection from=":J0_22" to="1O" fromLane="1" toLane="5" dir="l" state="M"/>
    <connection from=":J1_0" to="1I" fromLane="0" toLane="5" dir="t" state="M"/>
    <connection from=":J2_0" to="2I" fromLane="0" toLane="4" dir="t" state="M"/>
    <connection from=":J3_0" to="3I" fromLane="0" toLane="5" dir="t" state="M"/>
    <connection from=":J4_0" to="4I" fromLane="0" toLane="6" dir="t" state="M"/>

</net>
