<?xml version="1.0" encoding="UTF-8"?>

<!-- generated on 2022-04-07 14:05:59 by Eclipse SUMO netconvert Version 1.9.2
<configuration xmlns:xsi="http://www.w3.org/2001/XMLSchema-instance" xsi:noNamespaceSchemaLocation="http://sumo.dlr.de/xsd/netconvertConfiguration.xsd">

    <input>
        <node-files value="network/inputs/input.nod.xml"/>
        <edge-files value="network/inputs/input_5_6_6_6.edg.xml"/>
        <connection-files value="network/inputs/input_rsssl_rsssll_rrslll_rrslll.con.xml"/>
        <tllogic-files value="network/inputs/input_rsssl_rsssll_rrslll_rrslll.tll.xml"/>
    </input>

    <output>
        <output-file value="network/rsssl_rsssll_rrslll_rrslll.net.xml"/>
    </output>

    <report>
        <no-warnings value="true"/>
        <aggregate-warnings value="5"/>
        <log value="network/log/rsssl_rsssll_rrslll_rrslll.log.xml"/>
    </report>

</configuration>
-->

<net version="1.9" junctionCornerDetail="5" limitTurnSpeed="5.50" xmlns:xsi="http://www.w3.org/2001/XMLSchema-instance" xsi:noNamespaceSchemaLocation="http://sumo.dlr.de/xsd/net_file.xsd">

    <location netOffset="300.00,300.00" convBoundary="0.00,0.00,600.00,600.00" origBoundary="-300.00,-300.00,300.00,300.00" projParameter="!"/>

    <edge id=":J0_0" function="internal">
        <lane id=":J0_0_0" index="0" speed="6.51" length="9.03" shape="285.60,323.20 285.25,320.75 284.20,319.00 282.45,317.95 280.00,317.60"/>
    </edge>
    <edge id=":J0_1" function="internal">
        <lane id=":J0_1_0" index="0" speed="13.89" length="46.40" shape="288.80,323.20 288.80,276.80"/>
        <lane id=":J0_1_1" index="1" speed="13.89" length="46.40" shape="292.00,323.20 292.00,276.80"/>
        <lane id=":J0_1_2" index="2" speed="13.89" length="46.40" shape="295.20,323.20 295.20,276.80"/>
    </edge>
    <edge id=":J0_4" function="internal">
        <lane id=":J0_4_0" index="0" speed="13.13" length="40.00" shape="298.40,323.20 299.95,312.35 304.60,304.60 312.35,299.95 323.20,298.40"/>
    </edge>
    <edge id=":J0_5" function="internal">
        <lane id=":J0_5_0" index="0" speed="6.51" length="9.03" shape="323.20,317.60 320.75,317.95 319.00,319.00 317.95,320.75 317.60,323.20"/>
    </edge>
    <edge id=":J0_6" function="internal">
        <lane id=":J0_6_0" index="0" speed="13.89" length="43.20" shape="323.20,314.40 280.00,314.40"/>
        <lane id=":J0_6_1" index="1" speed="13.89" length="43.20" shape="323.20,311.20 280.00,311.20"/>
        <lane id=":J0_6_2" index="2" speed="13.89" length="43.20" shape="323.20,308.00 280.00,308.00"/>
    </edge>
    <edge id=":J0_9" function="internal">
        <lane id=":J0_9_0" index="0" speed="13.89" length="45.16" shape="323.20,304.80 310.95,303.05 302.20,297.80 296.95,289.05 295.20,276.80"/>
        <lane id=":J0_9_1" index="1" speed="13.13" length="40.00" shape="323.20,301.60 312.35,300.05 304.60,295.40 299.95,287.65 298.40,276.80"/>
    </edge>
    <edge id=":J0_11" function="internal">
        <lane id=":J0_11_0" index="0" speed="6.51" length="9.03" shape="317.60,276.80 317.95,279.25 319.00,281.00 320.75,282.05 323.20,282.40"/>
        <lane id=":J0_11_1" index="1" speed="8.00" length="14.19" shape="314.40,276.80 314.95,280.65 316.60,283.40 319.35,285.05 323.20,285.60"/>
    </edge>
    <edge id=":J0_13" function="internal">
        <lane id=":J0_13_0" index="0" speed="13.89" length="46.40" shape="311.20,276.80 311.20,323.20"/>
    </edge>
    <edge id=":J0_14" function="internal">
        <lane id=":J0_14_0" index="0" speed="13.89" length="47.77" shape="308.00,276.80 306.25,290.45 301.00,300.20 292.25,306.05 280.00,308.00"/>
        <lane id=":J0_14_1" index="1" speed="13.54" length="42.61" shape="304.80,276.80 303.25,289.05 298.60,297.80 290.85,303.05 280.00,304.80"/>
        <lane id=":J0_14_2" index="2" speed="12.72" length="37.45" shape="301.60,276.80 300.25,287.65 296.20,295.40 289.45,300.05 280.00,301.60"/>
    </edge>
    <edge id=":J0_17" function="internal">
        <lane id=":J0_17_0" index="0" speed="6.51" length="9.03" shape="280.00,282.40 282.45,282.05 284.20,281.00 285.25,279.25 285.60,276.80"/>
        <lane id=":J0_17_1" index="1" speed="8.00" length="14.19" shape="280.00,285.60 283.85,285.05 286.60,283.40 288.25,280.65 288.80,276.80"/>
    </edge>
    <edge id=":J0_19" function="internal">
        <lane id=":J0_19_0" index="0" speed="13.89" length="43.20" shape="280.00,288.80 323.20,288.80"/>
    </edge>
    <edge id=":J0_20" function="internal">
        <lane id=":J0_20_0" index="0" speed="13.89" length="47.77" shape="280.00,292.00 292.25,293.95 301.00,299.80 306.25,309.55 308.00,323.20"/>
        <lane id=":J0_20_1" index="1" speed="13.54" length="42.61" shape="280.00,295.20 290.85,296.95 298.60,302.20 303.25,310.95 304.80,323.20"/>
        <lane id=":J0_20_2" index="2" speed="12.72" length="37.45" shape="280.00,298.40 289.45,299.95 296.20,304.60 300.25,312.35 301.60,323.20"/>
    </edge>
    <edge id=":J1_0" function="internal">
        <lane id=":J1_0_0" index="0" speed="3.65" length="4.67" shape="301.60,600.00 300.80,601.20 300.00,601.60 299.20,601.20 298.40,600.00"/>
    </edge>
    <edge id=":J2_0" function="internal">
        <lane id=":J2_0_0" index="0" speed="3.65" length="4.67" shape="600.00,298.40 601.20,299.20 601.60,300.00 601.20,300.80 600.00,301.60"/>
    </edge>
    <edge id=":J3_0" function="internal">
        <lane id=":J3_0_0" index="0" speed="3.65" length="4.67" shape="298.40,0.00 299.20,-1.20 300.00,-1.60 300.80,-1.20 301.60,0.00"/>
    </edge>
    <edge id=":J4_0" function="internal">
        <lane id=":J4_0_0" index="0" speed="3.65" length="4.67" shape="0.00,301.60 -1.20,300.80 -1.60,300.00 -1.20,299.20 0.00,298.40"/>
    </edge>

    <edge id="1I" from="J1" to="J0" priority="-1">
        <lane id="1I_0" index="0" speed="13.89" length="276.80" shape="285.60,600.00 285.60,323.20"/>
        <lane id="1I_1" index="1" speed="13.89" length="276.80" shape="288.80,600.00 288.80,323.20"/>
        <lane id="1I_2" index="2" speed="13.89" length="276.80" shape="292.00,600.00 292.00,323.20"/>
        <lane id="1I_3" index="3" speed="13.89" length="276.80" shape="295.20,600.00 295.20,323.20"/>
        <lane id="1I_4" index="4" speed="13.89" length="276.80" shape="298.40,600.00 298.40,323.20"/>
    </edge>
    <edge id="1O" from="J0" to="J1" priority="-1">
        <lane id="1O_0" index="0" speed="13.89" length="276.80" shape="317.60,323.20 317.60,600.00"/>
        <lane id="1O_1" index="1" speed="13.89" length="276.80" shape="314.40,323.20 314.40,600.00"/>
        <lane id="1O_2" index="2" speed="13.89" length="276.80" shape="311.20,323.20 311.20,600.00"/>
        <lane id="1O_3" index="3" speed="13.89" length="276.80" shape="308.00,323.20 308.00,600.00"/>
        <lane id="1O_4" index="4" speed="13.89" length="276.80" shape="304.80,323.20 304.80,600.00"/>
        <lane id="1O_5" index="5" speed="13.89" length="276.80" shape="301.60,323.20 301.60,600.00"/>
    </edge>
    <edge id="2I" from="J2" to="J0" priority="-1">
        <lane id="2I_0" index="0" speed="13.89" length="276.80" shape="600.00,317.60 323.20,317.60"/>
        <lane id="2I_1" index="1" speed="13.89" length="276.80" shape="600.00,314.40 323.20,314.40"/>
        <lane id="2I_2" index="2" speed="13.89" length="276.80" shape="600.00,311.20 323.20,311.20"/>
        <lane id="2I_3" index="3" speed="13.89" length="276.80" shape="600.00,308.00 323.20,308.00"/>
        <lane id="2I_4" index="4" speed="13.89" length="276.80" shape="600.00,304.80 323.20,304.80"/>
        <lane id="2I_5" index="5" speed="13.89" length="276.80" shape="600.00,301.60 323.20,301.60"/>
    </edge>
    <edge id="2O" from="J0" to="J2" priority="-1">
        <lane id="2O_0" index="0" speed="13.89" length="276.80" shape="323.20,282.40 600.00,282.40"/>
        <lane id="2O_1" index="1" speed="13.89" length="276.80" shape="323.20,285.60 600.00,285.60"/>
        <lane id="2O_2" index="2" speed="13.89" length="276.80" shape="323.20,288.80 600.00,288.80"/>
        <lane id="2O_3" index="3" speed="13.89" length="276.80" shape="323.20,292.00 600.00,292.00"/>
        <lane id="2O_4" index="4" speed="13.89" length="276.80" shape="323.20,295.20 600.00,295.20"/>
        <lane id="2O_5" index="5" speed="13.89" length="276.80" shape="323.20,298.40 600.00,298.40"/>
    </edge>
    <edge id="3I" from="J3" to="J0" priority="-1">
        <lane id="3I_0" index="0" speed="13.89" length="276.80" shape="317.60,0.00 317.60,276.80"/>
        <lane id="3I_1" index="1" speed="13.89" length="276.80" shape="314.40,0.00 314.40,276.80"/>
        <lane id="3I_2" index="2" speed="13.89" length="276.80" shape="311.20,0.00 311.20,276.80"/>
        <lane id="3I_3" index="3" speed="13.89" length="276.80" shape="308.00,0.00 308.00,276.80"/>
        <lane id="3I_4" index="4" speed="13.89" length="276.80" shape="304.80,0.00 304.80,276.80"/>
        <lane id="3I_5" index="5" speed="13.89" length="276.80" shape="301.60,0.00 301.60,276.80"/>
    </edge>
    <edge id="3O" from="J0" to="J3" priority="-1">
        <lane id="3O_0" index="0" speed="13.89" length="276.80" shape="285.60,276.80 285.60,0.00"/>
        <lane id="3O_1" index="1" speed="13.89" length="276.80" shape="288.80,276.80 288.80,0.00"/>
        <lane id="3O_2" index="2" speed="13.89" length="276.80" shape="292.00,276.80 292.00,0.00"/>
        <lane id="3O_3" index="3" speed="13.89" length="276.80" shape="295.20,276.80 295.20,0.00"/>
        <lane id="3O_4" index="4" speed="13.89" length="276.80" shape="298.40,276.80 298.40,0.00"/>
    </edge>
    <edge id="4I" from="J4" to="J0" priority="-1">
        <lane id="4I_0" index="0" speed="13.89" length="280.00" shape="0.00,282.40 280.00,282.40"/>
        <lane id="4I_1" index="1" speed="13.89" length="280.00" shape="0.00,285.60 280.00,285.60"/>
        <lane id="4I_2" index="2" speed="13.89" length="280.00" shape="0.00,288.80 280.00,288.80"/>
        <lane id="4I_3" index="3" speed="13.89" length="280.00" shape="0.00,292.00 280.00,292.00"/>
        <lane id="4I_4" index="4" speed="13.89" length="280.00" shape="0.00,295.20 280.00,295.20"/>
        <lane id="4I_5" index="5" speed="13.89" length="280.00" shape="0.00,298.40 280.00,298.40"/>
    </edge>
    <edge id="4O" from="J0" to="J4" priority="-1">
        <lane id="4O_0" index="0" speed="13.89" length="280.00" shape="280.00,317.60 0.00,317.60"/>
        <lane id="4O_1" index="1" speed="13.89" length="280.00" shape="280.00,314.40 0.00,314.40"/>
        <lane id="4O_2" index="2" speed="13.89" length="280.00" shape="280.00,311.20 0.00,311.20"/>
        <lane id="4O_3" index="3" speed="13.89" length="280.00" shape="280.00,308.00 0.00,308.00"/>
        <lane id="4O_4" index="4" speed="13.89" length="280.00" shape="280.00,304.80 0.00,304.80"/>
        <lane id="4O_5" index="5" speed="13.89" length="280.00" shape="280.00,301.60 0.00,301.60"/>
    </edge>

    <tlLogic id="J0" type="static" programID="0" offset="0">
        <phase duration="15" state="rrrrGGrrrrrrrrGGGGGrrrr"/>
        <phase duration="3"  state="rrrrYYrrrrrrrrYYYYYrrrr"/>
        <phase duration="15" state="GGGGrrrrrrrGGGrrrrrrrrr"/>
        <phase duration="3"  state="GYYYrrrrrrrGGYrrrrrrrrr"/>
        <phase duration="15" state="GrrrrrrrrGGGGrrrrrrrGGG"/>
        <phase duration="3"  state="YrrrrrrrrYYYYrrrrrrrYYY"/>
        <phase duration="15" state="rrrrrGGGGrrrrrrrrGGGrrr"/>
        <phase duration="3"  state="rrrrrGYYYrrrrrrrrGGYrrr"/>
    </tlLogic>

    <junction id="J0" type="traffic_light" x="300.00" y="300.00" incLanes="1I_0 1I_1 1I_2 1I_3 1I_4 2I_0 2I_1 2I_2 2I_3 2I_4 2I_5 3I_0 3I_1 3I_2 3I_3 3I_4 3I_5 4I_0 4I_1 4I_2 4I_3 4I_4 4I_5" intLanes=":J0_0_0 :J0_1_0 :J0_1_1 :J0_1_2 :J0_4_0 :J0_5_0 :J0_6_0 :J0_6_1 :J0_6_2 :J0_9_0 :J0_9_1 :J0_11_0 :J0_11_1 :J0_13_0 :J0_14_0 :J0_14_1 :J0_14_2 :J0_17_0 :J0_17_1 :J0_19_0 :J0_20_0 :J0_20_1 :J0_20_2" shape="284.00,323.20 319.20,323.20 319.64,320.98 320.20,320.20 320.98,319.64 321.98,319.31 323.20,319.20 323.20,280.80 320.98,280.36 320.20,279.80 319.64,279.02 319.31,278.02 319.20,276.80 284.00,276.80 283.56,279.02 283.00,279.80 282.22,280.36 281.22,280.69 280.00,280.80 280.00,319.20 282.22,319.64 283.00,320.20 283.56,320.98 283.89,321.98">
        <request index="0"  response="00000000000000000000000" foes="00000000000000000000000" cont="0"/>
        <request index="1"  response="11111100000011111000000" foes="11111111100011111000000" cont="0"/>
        <request index="2"  response="11111100000011111000000" foes="11111111100011111000000" cont="0"/>
        <request index="3"  response="11111100000011111000000" foes="11111111100011111000000" cont="0"/>
        <request index="4"  response="11100000010011111000000" foes="11100000010011111000000" cont="0"/>
        <request index="5"  response="00000000000000000000000" foes="00000000000000000000000" cont="0"/>
        <request index="6"  response="00000000000000000000000" foes="11100011110000000011110" cont="0"/>
        <request index="7"  response="00000000000000000000000" foes="11100011110000000011110" cont="0"/>
        <request index="8"  response="00000000000000000000000" foes="11100011110000000011110" cont="0"/>
        <request index="9"  response="00010000000000000000000" foes="00010011110000000011110" cont="0"/>
        <request index="10" response="00010000000000000000000" foes="00010011110000000011110" cont="0"/>
        <request index="11" response="00000000000000000000000" foes="00000000000000000000000" cont="0"/>
        <request index="12" response="00000000000000000000000" foes="00000000000000000000000" cont="0"/>
        <request index="13" response="00010000000011111000000" foes="00010000000011111010000" cont="0"/>
        <request index="14" response="11110000000011111001110" foes="11110000000011111001110" cont="0"/>
        <request index="15" response="11110000000011111001110" foes="11110000000011111001110" cont="0"/>
        <request index="16" response="11110000000011111001110" foes="11110000000011111001110" cont="0"/>
        <request index="17" response="00000000000000000000000" foes="00000000000000000001110" cont="0"/>
        <request index="18" response="00000000000000000000000" foes="00000000000000000001110" cont="0"/>
        <request index="19" response="00000000000000000000000" foes="00000011110011000001110" cont="0"/>
        <request index="20" response="00000000000000111000000" foes="00000011100000111011110" cont="0"/>
        <request index="21" response="00000000000000111000000" foes="00000011100000111011110" cont="0"/>
        <request index="22" response="00000000000000111000000" foes="00000011100000111011110" cont="0"/>
    </junction>
    <junction id="J1" type="priority" x="300.00" y="600.00" incLanes="1O_0 1O_1 1O_2 1O_3 1O_4 1O_5" intLanes=":J1_0_0" shape="300.00,600.00 319.20,600.00 300.00,600.00">
        <request index="0" response="0" foes="0" cont="0"/>
    </junction>
    <junction id="J2" type="priority" x="600.00" y="300.00" incLanes="2O_0 2O_1 2O_2 2O_3 2O_4 2O_5" intLanes=":J2_0_0" shape="600.00,300.00 600.00,280.80 600.00,300.00">
        <request index="0" response="0" foes="0" cont="0"/>
    </junction>
    <junction id="J3" type="priority" x="300.00" y="0.00" incLanes="3O_0 3O_1 3O_2 3O_3 3O_4" intLanes=":J3_0_0" shape="300.00,0.00 284.00,0.00 300.00,0.00">
        <request index="0" response="0" foes="0" cont="0"/>
    </junction>
    <junction id="J4" type="priority" x="0.00" y="300.00" incLanes="4O_0 4O_1 4O_2 4O_3 4O_4 4O_5" intLanes=":J4_0_0" shape="0.00,300.00 0.00,319.20 0.00,300.00">
        <request index="0" response="0" foes="0" cont="0"/>
    </junction>

    <connection from="1I" to="4O" fromLane="0" toLane="0" contPos="0.00" via=":J0_0_0" tl="J0" linkIndex="0" dir="r" state="O"/>
    <connection from="1I" to="3O" fromLane="1" toLane="1" contPos="0.00" via=":J0_1_0" tl="J0" linkIndex="1" dir="s" state="o"/>
    <connection from="1I" to="3O" fromLane="2" toLane="2" contPos="0.00" via=":J0_1_1" tl="J0" linkIndex="2" dir="s" state="o"/>
    <connection from="1I" to="3O" fromLane="3" toLane="3" contPos="0.00" via=":J0_1_2" tl="J0" linkIndex="3" dir="s" state="o"/>
    <connection from="1I" to="2O" fromLane="4" toLane="5" contPos="0.00" via=":J0_4_0" tl="J0" linkIndex="4" dir="l" state="o"/>
    <connection from="1O" to="1I" fromLane="5" toLane="4" via=":J1_0_0" dir="t" state="M"/>
    <connection from="2I" to="1O" fromLane="0" toLane="0" contPos="0.00" via=":J0_5_0" tl="J0" linkIndex="5" dir="r" state="O"/>
    <connection from="2I" to="4O" fromLane="1" toLane="1" contPos="0.00" via=":J0_6_0" tl="J0" linkIndex="6" dir="s" state="O"/>
    <connection from="2I" to="4O" fromLane="2" toLane="2" contPos="0.00" via=":J0_6_1" tl="J0" linkIndex="7" dir="s" state="O"/>
    <connection from="2I" to="4O" fromLane="3" toLane="3" contPos="0.00" via=":J0_6_2" tl="J0" linkIndex="8" dir="s" state="O"/>
    <connection from="2I" to="3O" fromLane="4" toLane="3" contPos="0.00" via=":J0_9_0" tl="J0" linkIndex="9" dir="l" state="o"/>
    <connection from="2I" to="3O" fromLane="5" toLane="4" contPos="0.00" via=":J0_9_1" tl="J0" linkIndex="10" dir="l" state="o"/>
    <connection from="2O" to="2I" fromLane="5" toLane="5" via=":J2_0_0" dir="t" state="M"/>
    <connection from="3I" to="2O" fromLane="0" toLane="0" contPos="0.00" via=":J0_11_0" tl="J0" linkIndex="11" dir="r" state="O"/>
    <connection from="3I" to="2O" fromLane="1" toLane="1" contPos="0.00" via=":J0_11_1" tl="J0" linkIndex="12" dir="r" state="O"/>
    <connection from="3I" to="1O" fromLane="2" toLane="2" contPos="0.00" via=":J0_13_0" tl="J0" linkIndex="13" dir="s" state="o"/>
    <connection from="3I" to="4O" fromLane="3" toLane="3" contPos="0.00" via=":J0_14_0" tl="J0" linkIndex="14" dir="l" state="o"/>
    <connection from="3I" to="4O" fromLane="4" toLane="4" contPos="0.00" via=":J0_14_1" tl="J0" linkIndex="15" dir="l" state="o"/>
    <connection from="3I" to="4O" fromLane="5" toLane="5" contPos="0.00" via=":J0_14_2" tl="J0" linkIndex="16" dir="l" state="o"/>
    <connection from="3O" to="3I" fromLane="4" toLane="5" via=":J3_0_0" dir="t" state="M"/>
    <connection from="4I" to="3O" fromLane="0" toLane="0" contPos="0.00" via=":J0_17_0" tl="J0" linkIndex="17" dir="r" state="O"/>
    <connection from="4I" to="3O" fromLane="1" toLane="1" contPos="0.00" via=":J0_17_1" tl="J0" linkIndex="18" dir="r" state="O"/>
    <connection from="4I" to="2O" fromLane="2" toLane="2" contPos="0.00" via=":J0_19_0" tl="J0" linkIndex="19" dir="s" state="O"/>
    <connection from="4I" to="1O" fromLane="3" toLane="3" contPos="0.00" via=":J0_20_0" tl="J0" linkIndex="20" dir="l" state="o"/>
    <connection from="4I" to="1O" fromLane="4" toLane="4" contPos="0.00" via=":J0_20_1" tl="J0" linkIndex="21" dir="l" state="o"/>
    <connection from="4I" to="1O" fromLane="5" toLane="5" contPos="0.00" via=":J0_20_2" tl="J0" linkIndex="22" dir="l" state="o"/>
    <connection from="4O" to="4I" fromLane="5" toLane="5" via=":J4_0_0" dir="t" state="M"/>

    <connection from=":J0_0" to="4O" fromLane="0" toLane="0" dir="r" state="M"/>
    <connection from=":J0_1" to="3O" fromLane="0" toLane="1" dir="s" state="M"/>
    <connection from=":J0_1" to="3O" fromLane="1" toLane="2" dir="s" state="M"/>
    <connection from=":J0_1" to="3O" fromLane="2" toLane="3" dir="s" state="M"/>
    <connection from=":J0_4" to="2O" fromLane="0" toLane="5" dir="l" state="M"/>
    <connection from=":J0_5" to="1O" fromLane="0" toLane="0" dir="r" state="M"/>
    <connection from=":J0_6" to="4O" fromLane="0" toLane="1" dir="s" state="M"/>
    <connection from=":J0_6" to="4O" fromLane="1" toLane="2" dir="s" state="M"/>
    <connection from=":J0_6" to="4O" fromLane="2" toLane="3" dir="s" state="M"/>
    <connection from=":J0_9" to="3O" fromLane="0" toLane="3" dir="l" state="M"/>
    <connection from=":J0_9" to="3O" fromLane="1" toLane="4" dir="l" state="M"/>
    <connection from=":J0_11" to="2O" fromLane="0" toLane="0" dir="r" state="M"/>
    <connection from=":J0_11" to="2O" fromLane="1" toLane="1" dir="r" state="M"/>
    <connection from=":J0_13" to="1O" fromLane="0" toLane="2" dir="s" state="M"/>
    <connection from=":J0_14" to="4O" fromLane="0" toLane="3" dir="l" state="M"/>
    <connection from=":J0_14" to="4O" fromLane="1" toLane="4" dir="l" state="M"/>
    <connection from=":J0_14" to="4O" fromLane="2" toLane="5" dir="l" state="M"/>
    <connection from=":J0_17" to="3O" fromLane="0" toLane="0" dir="r" state="M"/>
    <connection from=":J0_17" to="3O" fromLane="1" toLane="1" dir="r" state="M"/>
    <connection from=":J0_19" to="2O" fromLane="0" toLane="2" dir="s" state="M"/>
    <connection from=":J0_20" to="1O" fromLane="0" toLane="3" dir="l" state="M"/>
    <connection from=":J0_20" to="1O" fromLane="1" toLane="4" dir="l" state="M"/>
    <connection from=":J0_20" to="1O" fromLane="2" toLane="5" dir="l" state="M"/>
    <connection from=":J1_0" to="1I" fromLane="0" toLane="4" dir="t" state="M"/>
    <connection from=":J2_0" to="2I" fromLane="0" toLane="5" dir="t" state="M"/>
    <connection from=":J3_0" to="3I" fromLane="0" toLane="5" dir="t" state="M"/>
    <connection from=":J4_0" to="4I" fromLane="0" toLane="5" dir="t" state="M"/>

</net>
