<?xml version="1.0" encoding="UTF-8"?>

<!-- generated on 2022-04-07 14:06:50 by Eclipse SUMO netconvert Version 1.9.2
<configuration xmlns:xsi="http://www.w3.org/2001/XMLSchema-instance" xsi:noNamespaceSchemaLocation="http://sumo.dlr.de/xsd/netconvertConfiguration.xsd">

    <input>
        <node-files value="network/inputs/input.nod.xml"/>
        <edge-files value="network/inputs/input_7_7_4_6.edg.xml"/>
        <connection-files value="network/inputs/input_rsssssl_rrsslll_rssl_rrslll.con.xml"/>
        <tllogic-files value="network/inputs/input_rsssssl_rrsslll_rssl_rrslll.tll.xml"/>
    </input>

    <output>
        <output-file value="network/rsssssl_rrsslll_rssl_rrslll.net.xml"/>
    </output>

    <report>
        <no-warnings value="true"/>
        <aggregate-warnings value="5"/>
        <log value="network/log/rsssssl_rrsslll_rssl_rrslll.log.xml"/>
    </report>

</configuration>
-->

<net version="1.9" junctionCornerDetail="5" limitTurnSpeed="5.50" xmlns:xsi="http://www.w3.org/2001/XMLSchema-instance" xsi:noNamespaceSchemaLocation="http://sumo.dlr.de/xsd/net_file.xsd">

    <location netOffset="300.00,300.00" convBoundary="0.00,0.00,600.00,600.00" origBoundary="-300.00,-300.00,300.00,300.00" projParameter="!"/>

    <edge id=":J0_0" function="internal">
        <lane id=":J0_0_0" index="0" speed="6.51" length="9.03" shape="279.20,326.40 278.85,323.95 277.80,322.20 276.05,321.15 273.60,320.80"/>
    </edge>
    <edge id=":J0_1" function="internal">
        <lane id=":J0_1_0" index="0" speed="13.89" length="49.60" shape="282.40,326.40 282.40,276.80"/>
        <lane id=":J0_1_1" index="1" speed="13.89" length="49.60" shape="285.60,326.40 285.60,276.80"/>
        <lane id=":J0_1_2" index="2" speed="13.89" length="49.60" shape="288.80,326.40 288.80,276.80"/>
        <lane id=":J0_1_3" index="3" speed="13.89" length="49.60" shape="292.00,326.40 292.00,276.80"/>
        <lane id=":J0_1_4" index="4" speed="13.89" length="49.60" shape="295.20,326.40 295.20,276.80"/>
    </edge>
    <edge id=":J0_6" function="internal">
        <lane id=":J0_6_0" index="0" speed="12.76" length="37.73" shape="298.40,326.40 299.55,314.15 303.00,305.40 308.75,300.15 316.80,298.40"/>
    </edge>
    <edge id=":J0_7" function="internal">
        <lane id=":J0_7_0" index="0" speed="6.51" length="9.03" shape="316.80,320.80 314.35,321.15 312.60,322.20 311.55,323.95 311.20,326.40"/>
        <lane id=":J0_7_1" index="1" speed="8.00" length="14.19" shape="316.80,317.60 312.95,318.15 310.20,319.80 308.55,322.55 308.00,326.40"/>
    </edge>
    <edge id=":J0_9" function="internal">
        <lane id=":J0_9_0" index="0" speed="13.89" length="43.20" shape="316.80,314.40 273.60,314.40"/>
        <lane id=":J0_9_1" index="1" speed="13.89" length="43.20" shape="316.80,311.20 273.60,311.20"/>
    </edge>
    <edge id=":J0_11" function="internal">
        <lane id=":J0_11_0" index="0" speed="13.35" length="41.36" shape="316.80,308.00 309.42,304.38 301.29,295.73 294.71,285.42 292.00,276.80"/>
        <lane id=":J0_11_1" index="1" speed="12.64" length="36.97" shape="316.80,304.80 309.99,301.68 302.95,294.13 297.43,284.92 295.20,276.80"/>
        <lane id=":J0_11_2" index="2" speed="11.89" length="32.61" shape="316.80,301.60 310.57,298.98 304.62,292.53 300.16,284.42 298.40,276.80"/>
    </edge>
    <edge id=":J0_14" function="internal">
        <lane id=":J0_14_0" index="0" speed="6.51" length="9.03" shape="311.20,276.80 311.55,279.25 312.60,281.00 314.35,282.05 316.80,282.40"/>
    </edge>
    <edge id=":J0_15" function="internal">
        <lane id=":J0_15_0" index="0" speed="13.89" length="49.60" shape="308.00,276.80 308.00,326.40"/>
        <lane id=":J0_15_1" index="1" speed="13.89" length="49.60" shape="304.80,276.80 304.80,326.40"/>
    </edge>
    <edge id=":J0_17" function="internal">
        <lane id=":J0_17_0" index="0" speed="13.54" length="42.61" shape="301.60,276.80 299.85,287.65 294.60,295.40 285.85,300.05 273.60,301.60"/>
    </edge>
    <edge id=":J0_18" function="internal">
        <lane id=":J0_18_0" index="0" speed="6.51" length="9.03" shape="273.60,282.40 276.05,282.05 277.80,281.00 278.85,279.25 279.20,276.80"/>
        <lane id=":J0_18_1" index="1" speed="8.00" length="14.19" shape="273.60,285.60 277.45,285.05 280.20,283.40 281.85,280.65 282.40,276.80"/>
    </edge>
    <edge id=":J0_20" function="internal">
        <lane id=":J0_20_0" index="0" speed="13.89" length="43.20" shape="273.60,288.80 316.80,288.80"/>
    </edge>
    <edge id=":J0_21" function="internal">
        <lane id=":J0_21_0" index="0" speed="13.89" length="50.03" shape="273.60,292.00 282.72,296.12 294.13,305.87 303.88,317.28 308.00,326.40"/>
        <lane id=":J0_21_1" index="1" speed="13.89" length="45.61" shape="273.60,295.20 282.22,298.83 292.53,307.47 301.18,317.78 304.80,326.40"/>
        <lane id=":J0_21_2" index="2" speed="13.33" length="41.22" shape="273.60,298.40 281.72,301.52 290.93,309.07 298.48,318.28 301.60,326.40"/>
    </edge>
    <edge id=":J1_0" function="internal">
        <lane id=":J1_0_0" index="0" speed="3.65" length="4.67" shape="301.60,600.00 300.80,601.20 300.00,601.60 299.20,601.20 298.40,600.00"/>
    </edge>
    <edge id=":J2_0" function="internal">
        <lane id=":J2_0_0" index="0" speed="3.65" length="4.67" shape="600.00,298.40 601.20,299.20 601.60,300.00 601.20,300.80 600.00,301.60"/>
    </edge>
    <edge id=":J3_0" function="internal">
        <lane id=":J3_0_0" index="0" speed="3.65" length="4.67" shape="298.40,0.00 299.20,-1.20 300.00,-1.60 300.80,-1.20 301.60,0.00"/>
    </edge>
    <edge id=":J4_0" function="internal">
        <lane id=":J4_0_0" index="0" speed="3.65" length="4.67" shape="0.00,301.60 -1.20,300.80 -1.60,300.00 -1.20,299.20 0.00,298.40"/>
    </edge>

    <edge id="1I" from="J1" to="J0" priority="-1">
        <lane id="1I_0" index="0" speed="13.89" length="273.60" shape="279.20,600.00 279.20,326.40"/>
        <lane id="1I_1" index="1" speed="13.89" length="273.60" shape="282.40,600.00 282.40,326.40"/>
        <lane id="1I_2" index="2" speed="13.89" length="273.60" shape="285.60,600.00 285.60,326.40"/>
        <lane id="1I_3" index="3" speed="13.89" length="273.60" shape="288.80,600.00 288.80,326.40"/>
        <lane id="1I_4" index="4" speed="13.89" length="273.60" shape="292.00,600.00 292.00,326.40"/>
        <lane id="1I_5" index="5" speed="13.89" length="273.60" shape="295.20,600.00 295.20,326.40"/>
        <lane id="1I_6" index="6" speed="13.89" length="273.60" shape="298.40,600.00 298.40,326.40"/>
    </edge>
    <edge id="1O" from="J0" to="J1" priority="-1">
        <lane id="1O_0" index="0" speed="13.89" length="273.60" shape="311.20,326.40 311.20,600.00"/>
        <lane id="1O_1" index="1" speed="13.89" length="273.60" shape="308.00,326.40 308.00,600.00"/>
        <lane id="1O_2" index="2" speed="13.89" length="273.60" shape="304.80,326.40 304.80,600.00"/>
        <lane id="1O_3" index="3" speed="13.89" length="273.60" shape="301.60,326.40 301.60,600.00"/>
    </edge>
    <edge id="2I" from="J2" to="J0" priority="-1">
        <lane id="2I_0" index="0" speed="13.89" length="283.20" shape="600.00,320.80 316.80,320.80"/>
        <lane id="2I_1" index="1" speed="13.89" length="283.20" shape="600.00,317.60 316.80,317.60"/>
        <lane id="2I_2" index="2" speed="13.89" length="283.20" shape="600.00,314.40 316.80,314.40"/>
        <lane id="2I_3" index="3" speed="13.89" length="283.20" shape="600.00,311.20 316.80,311.20"/>
        <lane id="2I_4" index="4" speed="13.89" length="283.20" shape="600.00,308.00 316.80,308.00"/>
        <lane id="2I_5" index="5" speed="13.89" length="283.20" shape="600.00,304.80 316.80,304.80"/>
        <lane id="2I_6" index="6" speed="13.89" length="283.20" shape="600.00,301.60 316.80,301.60"/>
    </edge>
    <edge id="2O" from="J0" to="J2" priority="-1">
        <lane id="2O_0" index="0" speed="13.89" length="283.20" shape="316.80,282.40 600.00,282.40"/>
        <lane id="2O_1" index="1" speed="13.89" length="283.20" shape="316.80,285.60 600.00,285.60"/>
        <lane id="2O_2" index="2" speed="13.89" length="283.20" shape="316.80,288.80 600.00,288.80"/>
        <lane id="2O_3" index="3" speed="13.89" length="283.20" shape="316.80,292.00 600.00,292.00"/>
        <lane id="2O_4" index="4" speed="13.89" length="283.20" shape="316.80,295.20 600.00,295.20"/>
        <lane id="2O_5" index="5" speed="13.89" length="283.20" shape="316.80,298.40 600.00,298.40"/>
    </edge>
    <edge id="3I" from="J3" to="J0" priority="-1">
        <lane id="3I_0" index="0" speed="13.89" length="276.80" shape="311.20,0.00 311.20,276.80"/>
        <lane id="3I_1" index="1" speed="13.89" length="276.80" shape="308.00,0.00 308.00,276.80"/>
        <lane id="3I_2" index="2" speed="13.89" length="276.80" shape="304.80,0.00 304.80,276.80"/>
        <lane id="3I_3" index="3" speed="13.89" length="276.80" shape="301.60,0.00 301.60,276.80"/>
    </edge>
    <edge id="3O" from="J0" to="J3" priority="-1">
        <lane id="3O_0" index="0" speed="13.89" length="276.80" shape="279.20,276.80 279.20,0.00"/>
        <lane id="3O_1" index="1" speed="13.89" length="276.80" shape="282.40,276.80 282.40,0.00"/>
        <lane id="3O_2" index="2" speed="13.89" length="276.80" shape="285.60,276.80 285.60,0.00"/>
        <lane id="3O_3" index="3" speed="13.89" length="276.80" shape="288.80,276.80 288.80,0.00"/>
        <lane id="3O_4" index="4" speed="13.89" length="276.80" shape="292.00,276.80 292.00,0.00"/>
        <lane id="3O_5" index="5" speed="13.89" length="276.80" shape="295.20,276.80 295.20,0.00"/>
        <lane id="3O_6" index="6" speed="13.89" length="276.80" shape="298.40,276.80 298.40,0.00"/>
    </edge>
    <edge id="4I" from="J4" to="J0" priority="-1">
        <lane id="4I_0" index="0" speed="13.89" length="273.60" shape="0.00,282.40 273.60,282.40"/>
        <lane id="4I_1" index="1" speed="13.89" length="273.60" shape="0.00,285.60 273.60,285.60"/>
        <lane id="4I_2" index="2" speed="13.89" length="273.60" shape="0.00,288.80 273.60,288.80"/>
        <lane id="4I_3" index="3" speed="13.89" length="273.60" shape="0.00,292.00 273.60,292.00"/>
        <lane id="4I_4" index="4" speed="13.89" length="273.60" shape="0.00,295.20 273.60,295.20"/>
        <lane id="4I_5" index="5" speed="13.89" length="273.60" shape="0.00,298.40 273.60,298.40"/>
    </edge>
    <edge id="4O" from="J0" to="J4" priority="-1">
        <lane id="4O_0" index="0" speed="13.89" length="273.60" shape="273.60,320.80 0.00,320.80"/>
        <lane id="4O_1" index="1" speed="13.89" length="273.60" shape="273.60,317.60 0.00,317.60"/>
        <lane id="4O_2" index="2" speed="13.89" length="273.60" shape="273.60,314.40 0.00,314.40"/>
        <lane id="4O_3" index="3" speed="13.89" length="273.60" shape="273.60,311.20 0.00,311.20"/>
        <lane id="4O_4" index="4" speed="13.89" length="273.60" shape="273.60,308.00 0.00,308.00"/>
        <lane id="4O_5" index="5" speed="13.89" length="273.60" shape="273.60,304.80 0.00,304.80"/>
        <lane id="4O_6" index="6" speed="13.89" length="273.60" shape="273.60,301.60 0.00,301.60"/>
    </edge>

    <tlLogic id="J0" type="static" programID="0" offset="0">
        <phase duration="15" state="rrrrrrGGGrrrrrrrrGGGrrrr"/>
        <phase duration="3"  state="rrrrrrYYYrrrrrrrrYYYrrrr"/>
        <phase duration="15" state="GGGGGGrrrrrrrrGGGrrrrrrr"/>
        <phase duration="3"  state="GYYYYYrrrrrrrrGYYrrrrrrr"/>
        <phase duration="15" state="GrrrrrrrrrrGGGGrrrrrrGGG"/>
        <phase duration="3"  state="YrrrrrrrrrrYYYYrrrrrrYYY"/>
        <phase duration="15" state="rrrrrrrGGGGrrrrrrrGGGrrr"/>
        <phase duration="3"  state="rrrrrrrGGYYrrrrrrrGGYrrr"/>
    </tlLogic>

    <junction id="J0" type="traffic_light" x="300.00" y="300.00" incLanes="1I_0 1I_1 1I_2 1I_3 1I_4 1I_5 1I_6 2I_0 2I_1 2I_2 2I_3 2I_4 2I_5 2I_6 3I_0 3I_1 3I_2 3I_3 4I_0 4I_1 4I_2 4I_3 4I_4 4I_5" intLanes=":J0_0_0 :J0_1_0 :J0_1_1 :J0_1_2 :J0_1_3 :J0_1_4 :J0_6_0 :J0_7_0 :J0_7_1 :J0_9_0 :J0_9_1 :J0_11_0 :J0_11_1 :J0_11_2 :J0_14_0 :J0_15_0 :J0_15_1 :J0_17_0 :J0_18_0 :J0_18_1 :J0_20_0 :J0_21_0 :J0_21_1 :J0_21_2" shape="277.60,326.40 312.80,326.40 313.24,324.18 313.80,323.40 314.58,322.84 315.58,322.51 316.80,322.40 316.80,280.80 314.58,280.36 313.80,279.80 313.24,279.02 312.91,278.02 312.80,276.80 277.60,276.80 277.16,279.02 276.60,279.80 275.82,280.36 274.82,280.69 273.60,280.80 273.60,322.40 275.82,322.84 276.60,323.40 277.16,324.18 277.49,325.18">
        <request index="0"  response="000000000000000000000000" foes="000000000000000000000000" cont="0"/>
        <request index="1"  response="111111000011111000000000" foes="111111100011111000000000" cont="0"/>
        <request index="2"  response="111111000011111000000000" foes="111111100011111000000000" cont="0"/>
        <request index="3"  response="111111000011111000000000" foes="111111100011111000000000" cont="0"/>
        <request index="4"  response="111111000011111000000000" foes="111111100011111000000000" cont="0"/>
        <request index="5"  response="111111000011111000000000" foes="111111100011111000000000" cont="0"/>
        <request index="6"  response="111000011011111000000000" foes="111000011011111000000000" cont="0"/>
        <request index="7"  response="000000000000000000000000" foes="111000011000000000000000" cont="0"/>
        <request index="8"  response="000000000000000000000000" foes="111000011000000000000000" cont="0"/>
        <request index="9"  response="000000000000000000000000" foes="111000011000000001111110" cont="0"/>
        <request index="10" response="000000000000000000000000" foes="111000011000000001111110" cont="0"/>
        <request index="11" response="000100000000000000000000" foes="000100111000000001111110" cont="0"/>
        <request index="12" response="000100000000000000000000" foes="000100111000000001111110" cont="0"/>
        <request index="13" response="000100000000000000000000" foes="000100111000000001111110" cont="0"/>
        <request index="14" response="000000000000000000000000" foes="000000000000000000000000" cont="0"/>
        <request index="15" response="111100000011111110000000" foes="111100000011111111000000" cont="0"/>
        <request index="16" response="111100000011111110000000" foes="111100000011111111000000" cont="0"/>
        <request index="17" response="111100000011100000111110" foes="111100000011100000111110" cont="0"/>
        <request index="18" response="000000000000000000000000" foes="000000000000000000111110" cont="0"/>
        <request index="19" response="000000000000000000000000" foes="000000000000000000111110" cont="0"/>
        <request index="20" response="000000000000000000000000" foes="000000111011100000111110" cont="0"/>
        <request index="21" response="000000000000011110000000" foes="000000111000011111111110" cont="0"/>
        <request index="22" response="000000000000011110000000" foes="000000111000011111111110" cont="0"/>
        <request index="23" response="000000000000011110000000" foes="000000111000011111111110" cont="0"/>
    </junction>
    <junction id="J1" type="priority" x="300.00" y="600.00" incLanes="1O_0 1O_1 1O_2 1O_3" intLanes=":J1_0_0" shape="300.00,600.00 312.80,600.00 300.00,600.00">
        <request index="0" response="0" foes="0" cont="0"/>
    </junction>
    <junction id="J2" type="priority" x="600.00" y="300.00" incLanes="2O_0 2O_1 2O_2 2O_3 2O_4 2O_5" intLanes=":J2_0_0" shape="600.00,300.00 600.00,280.80 600.00,300.00">
        <request index="0" response="0" foes="0" cont="0"/>
    </junction>
    <junction id="J3" type="priority" x="300.00" y="0.00" incLanes="3O_0 3O_1 3O_2 3O_3 3O_4 3O_5 3O_6" intLanes=":J3_0_0" shape="300.00,0.00 277.60,0.00 300.00,0.00">
        <request index="0" response="0" foes="0" cont="0"/>
    </junction>
    <junction id="J4" type="priority" x="0.00" y="300.00" incLanes="4O_0 4O_1 4O_2 4O_3 4O_4 4O_5 4O_6" intLanes=":J4_0_0" shape="0.00,300.00 0.00,322.40 0.00,300.00">
        <request index="0" response="0" foes="0" cont="0"/>
    </junction>

    <connection from="1I" to="4O" fromLane="0" toLane="0" contPos="0.00" via=":J0_0_0" tl="J0" linkIndex="0" dir="r" state="O"/>
    <connection from="1I" to="3O" fromLane="1" toLane="1" contPos="0.00" via=":J0_1_0" tl="J0" linkIndex="1" dir="s" state="o"/>
    <connection from="1I" to="3O" fromLane="2" toLane="2" contPos="0.00" via=":J0_1_1" tl="J0" linkIndex="2" dir="s" state="o"/>
    <connection from="1I" to="3O" fromLane="3" toLane="3" contPos="0.00" via=":J0_1_2" tl="J0" linkIndex="3" dir="s" state="o"/>
    <connection from="1I" to="3O" fromLane="4" toLane="4" contPos="0.00" via=":J0_1_3" tl="J0" linkIndex="4" dir="s" state="o"/>
    <connection from="1I" to="3O" fromLane="5" toLane="5" contPos="0.00" via=":J0_1_4" tl="J0" linkIndex="5" dir="s" state="o"/>
    <connection from="1I" to="2O" fromLane="6" toLane="5" contPos="0.00" via=":J0_6_0" tl="J0" linkIndex="6" dir="l" state="o"/>
    <connection from="1O" to="1I" fromLane="3" toLane="6" via=":J1_0_0" dir="t" state="M"/>
    <connection from="2I" to="1O" fromLane="0" toLane="0" contPos="0.00" via=":J0_7_0" tl="J0" linkIndex="7" dir="r" state="O"/>
    <connection from="2I" to="1O" fromLane="1" toLane="1" contPos="0.00" via=":J0_7_1" tl="J0" linkIndex="8" dir="r" state="O"/>
    <connection from="2I" to="4O" fromLane="2" toLane="2" contPos="0.00" via=":J0_9_0" tl="J0" linkIndex="9" dir="s" state="O"/>
    <connection from="2I" to="4O" fromLane="3" toLane="3" contPos="0.00" via=":J0_9_1" tl="J0" linkIndex="10" dir="s" state="O"/>
    <connection from="2I" to="3O" fromLane="4" toLane="4" contPos="0.00" via=":J0_11_0" tl="J0" linkIndex="11" dir="l" state="o"/>
    <connection from="2I" to="3O" fromLane="5" toLane="5" contPos="0.00" via=":J0_11_1" tl="J0" linkIndex="12" dir="l" state="o"/>
    <connection from="2I" to="3O" fromLane="6" toLane="6" contPos="0.00" via=":J0_11_2" tl="J0" linkIndex="13" dir="l" state="o"/>
    <connection from="2O" to="2I" fromLane="5" toLane="6" via=":J2_0_0" dir="t" state="M"/>
    <connection from="3I" to="2O" fromLane="0" toLane="0" contPos="0.00" via=":J0_14_0" tl="J0" linkIndex="14" dir="r" state="O"/>
    <connection from="3I" to="1O" fromLane="1" toLane="1" contPos="0.00" via=":J0_15_0" tl="J0" linkIndex="15" dir="s" state="o"/>
    <connection from="3I" to="1O" fromLane="2" toLane="2" contPos="0.00" via=":J0_15_1" tl="J0" linkIndex="16" dir="s" state="o"/>
    <connection from="3I" to="4O" fromLane="3" toLane="6" contPos="0.00" via=":J0_17_0" tl="J0" linkIndex="17" dir="l" state="o"/>
    <connection from="3O" to="3I" fromLane="6" toLane="3" via=":J3_0_0" dir="t" state="M"/>
    <connection from="4I" to="3O" fromLane="0" toLane="0" contPos="0.00" via=":J0_18_0" tl="J0" linkIndex="18" dir="r" state="O"/>
    <connection from="4I" to="3O" fromLane="1" toLane="1" contPos="0.00" via=":J0_18_1" tl="J0" linkIndex="19" dir="r" state="O"/>
    <connection from="4I" to="2O" fromLane="2" toLane="2" contPos="0.00" via=":J0_20_0" tl="J0" linkIndex="20" dir="s" state="O"/>
    <connection from="4I" to="1O" fromLane="3" toLane="1" contPos="0.00" via=":J0_21_0" tl="J0" linkIndex="21" dir="l" state="o"/>
    <connection from="4I" to="1O" fromLane="4" toLane="2" contPos="0.00" via=":J0_21_1" tl="J0" linkIndex="22" dir="l" state="o"/>
    <connection from="4I" to="1O" fromLane="5" toLane="3" contPos="0.00" via=":J0_21_2" tl="J0" linkIndex="23" dir="l" state="o"/>
    <connection from="4O" to="4I" fromLane="6" toLane="5" via=":J4_0_0" dir="t" state="M"/>

    <connection from=":J0_0" to="4O" fromLane="0" toLane="0" dir="r" state="M"/>
    <connection from=":J0_1" to="3O" fromLane="0" toLane="1" dir="s" state="M"/>
    <connection from=":J0_1" to="3O" fromLane="1" toLane="2" dir="s" state="M"/>
    <connection from=":J0_1" to="3O" fromLane="2" toLane="3" dir="s" state="M"/>
    <connection from=":J0_1" to="3O" fromLane="3" toLane="4" dir="s" state="M"/>
    <connection from=":J0_1" to="3O" fromLane="4" toLane="5" dir="s" state="M"/>
    <connection from=":J0_6" to="2O" fromLane="0" toLane="5" dir="l" state="M"/>
    <connection from=":J0_7" to="1O" fromLane="0" toLane="0" dir="r" state="M"/>
    <connection from=":J0_7" to="1O" fromLane="1" toLane="1" dir="r" state="M"/>
    <connection from=":J0_9" to="4O" fromLane="0" toLane="2" dir="s" state="M"/>
    <connection from=":J0_9" to="4O" fromLane="1" toLane="3" dir="s" state="M"/>
    <connection from=":J0_11" to="3O" fromLane="0" toLane="4" dir="l" state="M"/>
    <connection from=":J0_11" to="3O" fromLane="1" toLane="5" dir="l" state="M"/>
    <connection from=":J0_11" to="3O" fromLane="2" toLane="6" dir="l" state="M"/>
    <connection from=":J0_14" to="2O" fromLane="0" toLane="0" dir="r" state="M"/>
    <connection from=":J0_15" to="1O" fromLane="0" toLane="1" dir="s" state="M"/>
    <connection from=":J0_15" to="1O" fromLane="1" toLane="2" dir="s" state="M"/>
    <connection from=":J0_17" to="4O" fromLane="0" toLane="6" dir="l" state="M"/>
    <connection from=":J0_18" to="3O" fromLane="0" toLane="0" dir="r" state="M"/>
    <connection from=":J0_18" to="3O" fromLane="1" toLane="1" dir="r" state="M"/>
    <connection from=":J0_20" to="2O" fromLane="0" toLane="2" dir="s" state="M"/>
    <connection from=":J0_21" to="1O" fromLane="0" toLane="1" dir="l" state="M"/>
    <connection from=":J0_21" to="1O" fromLane="1" toLane="2" dir="l" state="M"/>
    <connection from=":J0_21" to="1O" fromLane="2" toLane="3" dir="l" state="M"/>
    <connection from=":J1_0" to="1I" fromLane="0" toLane="6" dir="t" state="M"/>
    <connection from=":J2_0" to="2I" fromLane="0" toLane="6" dir="t" state="M"/>
    <connection from=":J3_0" to="3I" fromLane="0" toLane="3" dir="t" state="M"/>
    <connection from=":J4_0" to="4I" fromLane="0" toLane="5" dir="t" state="M"/>

</net>
