<?xml version="1.0" encoding="UTF-8"?>

<!-- generated on 2022-04-07 14:06:37 by Eclipse SUMO netconvert Version 1.9.2
<configuration xmlns:xsi="http://www.w3.org/2001/XMLSchema-instance" xsi:noNamespaceSchemaLocation="http://sumo.dlr.de/xsd/netconvertConfiguration.xsd">

    <input>
        <node-files value="network/inputs/input.nod.xml"/>
        <edge-files value="network/inputs/input_7_4_6_5.edg.xml"/>
        <connection-files value="network/inputs/input_rsssssl_rrsl_rssssl_rrsll.con.xml"/>
        <tllogic-files value="network/inputs/input_rsssssl_rrsl_rssssl_rrsll.tll.xml"/>
    </input>

    <output>
        <output-file value="network/rsssssl_rrsl_rssssl_rrsll.net.xml"/>
    </output>

    <report>
        <no-warnings value="true"/>
        <aggregate-warnings value="5"/>
        <log value="network/log/rsssssl_rrsl_rssssl_rrsll.log.xml"/>
    </report>

</configuration>
-->

<net version="1.9" junctionCornerDetail="5" limitTurnSpeed="5.50" xmlns:xsi="http://www.w3.org/2001/XMLSchema-instance" xsi:noNamespaceSchemaLocation="http://sumo.dlr.de/xsd/net_file.xsd">

    <location netOffset="300.00,300.00" convBoundary="0.00,0.00,600.00,600.00" origBoundary="-300.00,-300.00,300.00,300.00" projParameter="!"/>

    <edge id=":J0_0" function="internal">
        <lane id=":J0_0_0" index="0" speed="6.51" length="9.03" shape="279.20,316.80 278.85,314.35 277.80,312.60 276.05,311.55 273.60,311.20"/>
    </edge>
    <edge id=":J0_1" function="internal">
        <lane id=":J0_1_0" index="0" speed="13.89" length="36.80" shape="282.40,316.80 282.40,280.00"/>
        <lane id=":J0_1_1" index="1" speed="13.89" length="36.80" shape="285.60,316.80 285.60,280.00"/>
        <lane id=":J0_1_2" index="2" speed="13.89" length="36.80" shape="288.80,316.80 288.80,280.00"/>
        <lane id=":J0_1_3" index="3" speed="13.89" length="36.80" shape="292.00,316.80 292.00,280.00"/>
        <lane id=":J0_1_4" index="4" speed="13.89" length="36.80" shape="295.20,316.80 295.20,280.00"/>
    </edge>
    <edge id=":J0_6" function="internal">
        <lane id=":J0_6_0" index="0" speed="12.30" length="34.99" shape="298.40,316.80 299.95,308.75 304.60,303.00 312.35,299.55 323.20,298.40"/>
    </edge>
    <edge id=":J0_7" function="internal">
        <lane id=":J0_7_0" index="0" speed="6.51" length="9.03" shape="323.20,311.20 320.75,311.55 319.00,312.60 317.95,314.35 317.60,316.80"/>
        <lane id=":J0_7_1" index="1" speed="8.00" length="14.19" shape="323.20,308.00 319.35,308.55 316.60,310.20 314.95,312.95 314.40,316.80"/>
    </edge>
    <edge id=":J0_9" function="internal">
        <lane id=":J0_9_0" index="0" speed="13.89" length="49.60" shape="323.20,304.80 273.60,304.80"/>
    </edge>
    <edge id=":J0_10" function="internal">
        <lane id=":J0_10_0" index="0" speed="12.72" length="37.45" shape="323.20,301.60 312.35,300.25 304.60,296.20 299.95,289.45 298.40,280.00"/>
    </edge>
    <edge id=":J0_11" function="internal">
        <lane id=":J0_11_0" index="0" speed="6.51" length="9.03" shape="317.60,280.00 317.95,282.45 319.00,284.20 320.75,285.25 323.20,285.60"/>
    </edge>
    <edge id=":J0_12" function="internal">
        <lane id=":J0_12_0" index="0" speed="13.89" length="36.80" shape="314.40,280.00 314.40,316.80"/>
        <lane id=":J0_12_1" index="1" speed="13.89" length="36.80" shape="311.20,280.00 311.20,316.80"/>
        <lane id=":J0_12_2" index="2" speed="13.89" length="36.80" shape="308.00,280.00 308.00,316.80"/>
        <lane id=":J0_12_3" index="3" speed="13.89" length="36.80" shape="304.80,280.00 304.80,316.80"/>
    </edge>
    <edge id=":J0_16" function="internal">
        <lane id=":J0_16_0" index="0" speed="13.15" length="40.13" shape="301.60,280.00 299.85,289.45 294.60,296.20 285.85,300.25 273.60,301.60"/>
    </edge>
    <edge id=":J0_17" function="internal">
        <lane id=":J0_17_0" index="0" speed="6.51" length="9.03" shape="273.60,285.60 276.05,285.25 277.80,284.20 278.85,282.45 279.20,280.00"/>
        <lane id=":J0_17_1" index="1" speed="8.00" length="14.19" shape="273.60,288.80 277.45,288.25 280.20,286.60 281.85,283.85 282.40,280.00"/>
    </edge>
    <edge id=":J0_19" function="internal">
        <lane id=":J0_19_0" index="0" speed="13.89" length="49.60" shape="273.60,292.00 323.20,292.00"/>
    </edge>
    <edge id=":J0_20" function="internal">
        <lane id=":J0_20_0" index="0" speed="13.58" length="42.86" shape="273.60,295.20 287.25,296.55 297.00,300.60 302.85,307.35 304.80,316.80"/>
        <lane id=":J0_20_1" index="1" speed="12.76" length="37.73" shape="273.60,298.40 285.85,299.55 294.60,303.00 299.85,308.75 301.60,316.80"/>
    </edge>
    <edge id=":J1_0" function="internal">
        <lane id=":J1_0_0" index="0" speed="3.65" length="4.67" shape="301.60,600.00 300.80,601.20 300.00,601.60 299.20,601.20 298.40,600.00"/>
    </edge>
    <edge id=":J2_0" function="internal">
        <lane id=":J2_0_0" index="0" speed="3.65" length="4.67" shape="600.00,298.40 601.20,299.20 601.60,300.00 601.20,300.80 600.00,301.60"/>
    </edge>
    <edge id=":J3_0" function="internal">
        <lane id=":J3_0_0" index="0" speed="3.65" length="4.67" shape="298.40,0.00 299.20,-1.20 300.00,-1.60 300.80,-1.20 301.60,0.00"/>
    </edge>
    <edge id=":J4_0" function="internal">
        <lane id=":J4_0_0" index="0" speed="3.65" length="4.67" shape="0.00,301.60 -1.20,300.80 -1.60,300.00 -1.20,299.20 0.00,298.40"/>
    </edge>

    <edge id="1I" from="J1" to="J0" priority="-1">
        <lane id="1I_0" index="0" speed="13.89" length="283.20" shape="279.20,600.00 279.20,316.80"/>
        <lane id="1I_1" index="1" speed="13.89" length="283.20" shape="282.40,600.00 282.40,316.80"/>
        <lane id="1I_2" index="2" speed="13.89" length="283.20" shape="285.60,600.00 285.60,316.80"/>
        <lane id="1I_3" index="3" speed="13.89" length="283.20" shape="288.80,600.00 288.80,316.80"/>
        <lane id="1I_4" index="4" speed="13.89" length="283.20" shape="292.00,600.00 292.00,316.80"/>
        <lane id="1I_5" index="5" speed="13.89" length="283.20" shape="295.20,600.00 295.20,316.80"/>
        <lane id="1I_6" index="6" speed="13.89" length="283.20" shape="298.40,600.00 298.40,316.80"/>
    </edge>
    <edge id="1O" from="J0" to="J1" priority="-1">
        <lane id="1O_0" index="0" speed="13.89" length="283.20" shape="317.60,316.80 317.60,600.00"/>
        <lane id="1O_1" index="1" speed="13.89" length="283.20" shape="314.40,316.80 314.40,600.00"/>
        <lane id="1O_2" index="2" speed="13.89" length="283.20" shape="311.20,316.80 311.20,600.00"/>
        <lane id="1O_3" index="3" speed="13.89" length="283.20" shape="308.00,316.80 308.00,600.00"/>
        <lane id="1O_4" index="4" speed="13.89" length="283.20" shape="304.80,316.80 304.80,600.00"/>
        <lane id="1O_5" index="5" speed="13.89" length="283.20" shape="301.60,316.80 301.60,600.00"/>
    </edge>
    <edge id="2I" from="J2" to="J0" priority="-1">
        <lane id="2I_0" index="0" speed="13.89" length="276.80" shape="600.00,311.20 323.20,311.20"/>
        <lane id="2I_1" index="1" speed="13.89" length="276.80" shape="600.00,308.00 323.20,308.00"/>
        <lane id="2I_2" index="2" speed="13.89" length="276.80" shape="600.00,304.80 323.20,304.80"/>
        <lane id="2I_3" index="3" speed="13.89" length="276.80" shape="600.00,301.60 323.20,301.60"/>
    </edge>
    <edge id="2O" from="J0" to="J2" priority="-1">
        <lane id="2O_0" index="0" speed="13.89" length="276.80" shape="323.20,285.60 600.00,285.60"/>
        <lane id="2O_1" index="1" speed="13.89" length="276.80" shape="323.20,288.80 600.00,288.80"/>
        <lane id="2O_2" index="2" speed="13.89" length="276.80" shape="323.20,292.00 600.00,292.00"/>
        <lane id="2O_3" index="3" speed="13.89" length="276.80" shape="323.20,295.20 600.00,295.20"/>
        <lane id="2O_4" index="4" speed="13.89" length="276.80" shape="323.20,298.40 600.00,298.40"/>
    </edge>
    <edge id="3I" from="J3" to="J0" priority="-1">
        <lane id="3I_0" index="0" speed="13.89" length="280.00" shape="317.60,0.00 317.60,280.00"/>
        <lane id="3I_1" index="1" speed="13.89" length="280.00" shape="314.40,0.00 314.40,280.00"/>
        <lane id="3I_2" index="2" speed="13.89" length="280.00" shape="311.20,0.00 311.20,280.00"/>
        <lane id="3I_3" index="3" speed="13.89" length="280.00" shape="308.00,0.00 308.00,280.00"/>
        <lane id="3I_4" index="4" speed="13.89" length="280.00" shape="304.80,0.00 304.80,280.00"/>
        <lane id="3I_5" index="5" speed="13.89" length="280.00" shape="301.60,0.00 301.60,280.00"/>
    </edge>
    <edge id="3O" from="J0" to="J3" priority="-1">
        <lane id="3O_0" index="0" speed="13.89" length="280.00" shape="279.20,280.00 279.20,0.00"/>
        <lane id="3O_1" index="1" speed="13.89" length="280.00" shape="282.40,280.00 282.40,0.00"/>
        <lane id="3O_2" index="2" speed="13.89" length="280.00" shape="285.60,280.00 285.60,0.00"/>
        <lane id="3O_3" index="3" speed="13.89" length="280.00" shape="288.80,280.00 288.80,0.00"/>
        <lane id="3O_4" index="4" speed="13.89" length="280.00" shape="292.00,280.00 292.00,0.00"/>
        <lane id="3O_5" index="5" speed="13.89" length="280.00" shape="295.20,280.00 295.20,0.00"/>
        <lane id="3O_6" index="6" speed="13.89" length="280.00" shape="298.40,280.00 298.40,0.00"/>
    </edge>
    <edge id="4I" from="J4" to="J0" priority="-1">
        <lane id="4I_0" index="0" speed="13.89" length="273.60" shape="0.00,285.60 273.60,285.60"/>
        <lane id="4I_1" index="1" speed="13.89" length="273.60" shape="0.00,288.80 273.60,288.80"/>
        <lane id="4I_2" index="2" speed="13.89" length="273.60" shape="0.00,292.00 273.60,292.00"/>
        <lane id="4I_3" index="3" speed="13.89" length="273.60" shape="0.00,295.20 273.60,295.20"/>
        <lane id="4I_4" index="4" speed="13.89" length="273.60" shape="0.00,298.40 273.60,298.40"/>
    </edge>
    <edge id="4O" from="J0" to="J4" priority="-1">
        <lane id="4O_0" index="0" speed="13.89" length="273.60" shape="273.60,311.20 0.00,311.20"/>
        <lane id="4O_1" index="1" speed="13.89" length="273.60" shape="273.60,308.00 0.00,308.00"/>
        <lane id="4O_2" index="2" speed="13.89" length="273.60" shape="273.60,304.80 0.00,304.80"/>
        <lane id="4O_3" index="3" speed="13.89" length="273.60" shape="273.60,301.60 0.00,301.60"/>
    </edge>

    <tlLogic id="J0" type="static" programID="0" offset="0">
        <phase duration="15" state="rrrrrrGGGrrrrrrrGGGrrr"/>
        <phase duration="3"  state="rrrrrrYYYrrrrrrrYYYrrr"/>
        <phase duration="15" state="GGGGGGrrrrrGGGGGrrrrrr"/>
        <phase duration="3"  state="GYYYYYrrrrrGYYYYrrrrrr"/>
        <phase duration="15" state="GrrrrrrrrrGGrrrrrrrrGG"/>
        <phase duration="3"  state="YrrrrrrrrrYYrrrrrrrrYY"/>
        <phase duration="15" state="rrrrrrrGGGrrrrrrrGGGrr"/>
        <phase duration="3"  state="rrrrrrrGGYrrrrrrrGGYrr"/>
    </tlLogic>

    <junction id="J0" type="traffic_light" x="300.00" y="300.00" incLanes="1I_0 1I_1 1I_2 1I_3 1I_4 1I_5 1I_6 2I_0 2I_1 2I_2 2I_3 3I_0 3I_1 3I_2 3I_3 3I_4 3I_5 4I_0 4I_1 4I_2 4I_3 4I_4" intLanes=":J0_0_0 :J0_1_0 :J0_1_1 :J0_1_2 :J0_1_3 :J0_1_4 :J0_6_0 :J0_7_0 :J0_7_1 :J0_9_0 :J0_10_0 :J0_11_0 :J0_12_0 :J0_12_1 :J0_12_2 :J0_12_3 :J0_16_0 :J0_17_0 :J0_17_1 :J0_19_0 :J0_20_0 :J0_20_1" shape="277.60,316.80 319.20,316.80 319.64,314.58 320.20,313.80 320.98,313.24 321.98,312.91 323.20,312.80 323.20,284.00 320.98,283.56 320.20,283.00 319.64,282.22 319.31,281.22 319.20,280.00 277.60,280.00 277.16,282.22 276.60,283.00 275.82,283.56 274.82,283.89 273.60,284.00 273.60,312.80 275.82,313.24 276.60,313.80 277.16,314.58 277.49,315.58">
        <request index="0"  response="0000000000000000000000" foes="0000000000000000000000" cont="0"/>
        <request index="1"  response="0000000000000000000000" foes="1111110000001000000000" cont="0"/>
        <request index="2"  response="0000000000000000000000" foes="1111110000001000000000" cont="0"/>
        <request index="3"  response="0000000000000000000000" foes="1111110000001000000000" cont="0"/>
        <request index="4"  response="0000000000000000000000" foes="1111110000001000000000" cont="0"/>
        <request index="5"  response="0000000000000000000000" foes="1111110000001000000000" cont="0"/>
        <request index="6"  response="0000001111000000000000" foes="1100001111011000000000" cont="0"/>
        <request index="7"  response="0000001111000000000000" foes="0000001111000000000000" cont="0"/>
        <request index="8"  response="0000001111000000000000" foes="0000001111000000000000" cont="0"/>
        <request index="9"  response="0000001111000001111110" foes="1100001111000001111110" cont="0"/>
        <request index="10" response="0010011111000001000000" foes="0010011111000001000000" cont="0"/>
        <request index="11" response="0000000000000000000000" foes="0000000000000000000000" cont="0"/>
        <request index="12" response="0000000000000000000000" foes="1110000000011111000000" cont="0"/>
        <request index="13" response="0000000000000000000000" foes="1110000000011111000000" cont="0"/>
        <request index="14" response="0000000000000000000000" foes="1110000000011111000000" cont="0"/>
        <request index="15" response="0000000000000000000000" foes="1110000000011111000000" cont="0"/>
        <request index="16" response="0000000000000000111110" foes="1110000000010000111110" cont="0"/>
        <request index="17" response="0000000000000000111110" foes="0000000000000000111110" cont="0"/>
        <request index="18" response="0000000000000000111110" foes="0000000000000000111110" cont="0"/>
        <request index="19" response="0000011111000000111110" foes="0000011111010000111110" cont="0"/>
        <request index="20" response="0000011111001001111110" foes="0000011111001001111110" cont="0"/>
        <request index="21" response="0000011111001001111110" foes="0000011111001001111110" cont="0"/>
    </junction>
    <junction id="J1" type="priority" x="300.00" y="600.00" incLanes="1O_0 1O_1 1O_2 1O_3 1O_4 1O_5" intLanes=":J1_0_0" shape="300.00,600.00 319.20,600.00 300.00,600.00">
        <request index="0" response="0" foes="0" cont="0"/>
    </junction>
    <junction id="J2" type="priority" x="600.00" y="300.00" incLanes="2O_0 2O_1 2O_2 2O_3 2O_4" intLanes=":J2_0_0" shape="600.00,300.00 600.00,284.00 600.00,300.00">
        <request index="0" response="0" foes="0" cont="0"/>
    </junction>
    <junction id="J3" type="priority" x="300.00" y="0.00" incLanes="3O_0 3O_1 3O_2 3O_3 3O_4 3O_5 3O_6" intLanes=":J3_0_0" shape="300.00,0.00 277.60,0.00 300.00,0.00">
        <request index="0" response="0" foes="0" cont="0"/>
    </junction>
    <junction id="J4" type="priority" x="0.00" y="300.00" incLanes="4O_0 4O_1 4O_2 4O_3" intLanes=":J4_0_0" shape="0.00,300.00 0.00,312.80 0.00,300.00">
        <request index="0" response="0" foes="0" cont="0"/>
    </junction>

    <connection from="1I" to="4O" fromLane="0" toLane="0" contPos="0.00" via=":J0_0_0" tl="J0" linkIndex="0" dir="r" state="O"/>
    <connection from="1I" to="3O" fromLane="1" toLane="1" contPos="0.00" via=":J0_1_0" tl="J0" linkIndex="1" dir="s" state="O"/>
    <connection from="1I" to="3O" fromLane="2" toLane="2" contPos="0.00" via=":J0_1_1" tl="J0" linkIndex="2" dir="s" state="O"/>
    <connection from="1I" to="3O" fromLane="3" toLane="3" contPos="0.00" via=":J0_1_2" tl="J0" linkIndex="3" dir="s" state="O"/>
    <connection from="1I" to="3O" fromLane="4" toLane="4" contPos="0.00" via=":J0_1_3" tl="J0" linkIndex="4" dir="s" state="O"/>
    <connection from="1I" to="3O" fromLane="5" toLane="5" contPos="0.00" via=":J0_1_4" tl="J0" linkIndex="5" dir="s" state="O"/>
    <connection from="1I" to="2O" fromLane="6" toLane="4" contPos="0.00" via=":J0_6_0" tl="J0" linkIndex="6" dir="l" state="o"/>
    <connection from="1O" to="1I" fromLane="5" toLane="6" via=":J1_0_0" dir="t" state="M"/>
    <connection from="2I" to="1O" fromLane="0" toLane="0" contPos="0.00" via=":J0_7_0" tl="J0" linkIndex="7" dir="r" state="o"/>
    <connection from="2I" to="1O" fromLane="1" toLane="1" contPos="0.00" via=":J0_7_1" tl="J0" linkIndex="8" dir="r" state="o"/>
    <connection from="2I" to="4O" fromLane="2" toLane="2" contPos="0.00" via=":J0_9_0" tl="J0" linkIndex="9" dir="s" state="o"/>
    <connection from="2I" to="3O" fromLane="3" toLane="6" contPos="0.00" via=":J0_10_0" tl="J0" linkIndex="10" dir="l" state="o"/>
    <connection from="2O" to="2I" fromLane="4" toLane="3" via=":J2_0_0" dir="t" state="M"/>
    <connection from="3I" to="2O" fromLane="0" toLane="0" contPos="0.00" via=":J0_11_0" tl="J0" linkIndex="11" dir="r" state="O"/>
    <connection from="3I" to="1O" fromLane="1" toLane="1" contPos="0.00" via=":J0_12_0" tl="J0" linkIndex="12" dir="s" state="O"/>
    <connection from="3I" to="1O" fromLane="2" toLane="2" contPos="0.00" via=":J0_12_1" tl="J0" linkIndex="13" dir="s" state="O"/>
    <connection from="3I" to="1O" fromLane="3" toLane="3" contPos="0.00" via=":J0_12_2" tl="J0" linkIndex="14" dir="s" state="O"/>
    <connection from="3I" to="1O" fromLane="4" toLane="4" contPos="0.00" via=":J0_12_3" tl="J0" linkIndex="15" dir="s" state="O"/>
    <connection from="3I" to="4O" fromLane="5" toLane="3" contPos="0.00" via=":J0_16_0" tl="J0" linkIndex="16" dir="l" state="o"/>
    <connection from="3O" to="3I" fromLane="6" toLane="5" via=":J3_0_0" dir="t" state="M"/>
    <connection from="4I" to="3O" fromLane="0" toLane="0" contPos="0.00" via=":J0_17_0" tl="J0" linkIndex="17" dir="r" state="o"/>
    <connection from="4I" to="3O" fromLane="1" toLane="1" contPos="0.00" via=":J0_17_1" tl="J0" linkIndex="18" dir="r" state="o"/>
    <connection from="4I" to="2O" fromLane="2" toLane="2" contPos="0.00" via=":J0_19_0" tl="J0" linkIndex="19" dir="s" state="o"/>
    <connection from="4I" to="1O" fromLane="3" toLane="4" contPos="0.00" via=":J0_20_0" tl="J0" linkIndex="20" dir="l" state="o"/>
    <connection from="4I" to="1O" fromLane="4" toLane="5" contPos="0.00" via=":J0_20_1" tl="J0" linkIndex="21" dir="l" state="o"/>
    <connection from="4O" to="4I" fromLane="3" toLane="4" via=":J4_0_0" dir="t" state="M"/>

    <connection from=":J0_0" to="4O" fromLane="0" toLane="0" dir="r" state="M"/>
    <connection from=":J0_1" to="3O" fromLane="0" toLane="1" dir="s" state="M"/>
    <connection from=":J0_1" to="3O" fromLane="1" toLane="2" dir="s" state="M"/>
    <connection from=":J0_1" to="3O" fromLane="2" toLane="3" dir="s" state="M"/>
    <connection from=":J0_1" to="3O" fromLane="3" toLane="4" dir="s" state="M"/>
    <connection from=":J0_1" to="3O" fromLane="4" toLane="5" dir="s" state="M"/>
    <connection from=":J0_6" to="2O" fromLane="0" toLane="4" dir="l" state="M"/>
    <connection from=":J0_7" to="1O" fromLane="0" toLane="0" dir="r" state="M"/>
    <connection from=":J0_7" to="1O" fromLane="1" toLane="1" dir="r" state="M"/>
    <connection from=":J0_9" to="4O" fromLane="0" toLane="2" dir="s" state="M"/>
    <connection from=":J0_10" to="3O" fromLane="0" toLane="6" dir="l" state="M"/>
    <connection from=":J0_11" to="2O" fromLane="0" toLane="0" dir="r" state="M"/>
    <connection from=":J0_12" to="1O" fromLane="0" toLane="1" dir="s" state="M"/>
    <connection from=":J0_12" to="1O" fromLane="1" toLane="2" dir="s" state="M"/>
    <connection from=":J0_12" to="1O" fromLane="2" toLane="3" dir="s" state="M"/>
    <connection from=":J0_12" to="1O" fromLane="3" toLane="4" dir="s" state="M"/>
    <connection from=":J0_16" to="4O" fromLane="0" toLane="3" dir="l" state="M"/>
    <connection from=":J0_17" to="3O" fromLane="0" toLane="0" dir="r" state="M"/>
    <connection from=":J0_17" to="3O" fromLane="1" toLane="1" dir="r" state="M"/>
    <connection from=":J0_19" to="2O" fromLane="0" toLane="2" dir="s" state="M"/>
    <connection from=":J0_20" to="1O" fromLane="0" toLane="4" dir="l" state="M"/>
    <connection from=":J0_20" to="1O" fromLane="1" toLane="5" dir="l" state="M"/>
    <connection from=":J1_0" to="1I" fromLane="0" toLane="6" dir="t" state="M"/>
    <connection from=":J2_0" to="2I" fromLane="0" toLane="3" dir="t" state="M"/>
    <connection from=":J3_0" to="3I" fromLane="0" toLane="5" dir="t" state="M"/>
    <connection from=":J4_0" to="4I" fromLane="0" toLane="4" dir="t" state="M"/>

</net>
