<?xml version="1.0" encoding="UTF-8"?>

<!-- generated on 2022-04-07 14:05:55 by Eclipse SUMO netconvert Version 1.9.2
<configuration xmlns:xsi="http://www.w3.org/2001/XMLSchema-instance" xsi:noNamespaceSchemaLocation="http://sumo.dlr.de/xsd/netconvertConfiguration.xsd">

    <input>
        <node-files value="network/inputs/input.nod.xml"/>
        <edge-files value="network/inputs/input_5_5_6_4.edg.xml"/>
        <connection-files value="network/inputs/input_rsssl_rsssl_rssssl_rssl.con.xml"/>
        <tllogic-files value="network/inputs/input_rsssl_rsssl_rssssl_rssl.tll.xml"/>
    </input>

    <output>
        <output-file value="network/rsssl_rsssl_rssssl_rssl.net.xml"/>
    </output>

    <report>
        <no-warnings value="true"/>
        <aggregate-warnings value="5"/>
        <log value="network/log/rsssl_rsssl_rssssl_rssl.log.xml"/>
    </report>

</configuration>
-->

<net version="1.9" junctionCornerDetail="5" limitTurnSpeed="5.50" xmlns:xsi="http://www.w3.org/2001/XMLSchema-instance" xsi:noNamespaceSchemaLocation="http://sumo.dlr.de/xsd/net_file.xsd">

    <location netOffset="300.00,300.00" convBoundary="0.00,0.00,600.00,600.00" origBoundary="-300.00,-300.00,300.00,300.00" projParameter="!"/>

    <edge id=":J0_0" function="internal">
        <lane id=":J0_0_0" index="0" speed="6.51" length="9.03" shape="285.60,320.00 285.25,317.55 284.20,315.80 282.45,314.75 280.00,314.40"/>
    </edge>
    <edge id=":J0_1" function="internal">
        <lane id=":J0_1_0" index="0" speed="13.89" length="36.80" shape="288.80,320.00 288.80,283.20"/>
        <lane id=":J0_1_1" index="1" speed="13.89" length="36.80" shape="292.00,320.00 292.00,283.20"/>
        <lane id=":J0_1_2" index="2" speed="13.89" length="36.80" shape="295.20,320.00 295.20,283.20"/>
    </edge>
    <edge id=":J0_4" function="internal">
        <lane id=":J0_4_0" index="0" speed="12.72" length="37.45" shape="298.40,320.00 299.95,310.55 304.60,303.80 312.35,299.75 323.20,298.40"/>
    </edge>
    <edge id=":J0_5" function="internal">
        <lane id=":J0_5_0" index="0" speed="6.51" length="9.03" shape="323.20,314.40 320.75,314.75 319.00,315.80 317.95,317.55 317.60,320.00"/>
    </edge>
    <edge id=":J0_6" function="internal">
        <lane id=":J0_6_0" index="0" speed="13.89" length="43.20" shape="323.20,311.20 280.00,311.20"/>
        <lane id=":J0_6_1" index="1" speed="13.89" length="43.20" shape="323.20,308.00 280.00,308.00"/>
        <lane id=":J0_6_2" index="2" speed="13.89" length="43.20" shape="323.20,304.80 280.00,304.80"/>
    </edge>
    <edge id=":J0_9" function="internal">
        <lane id=":J0_9_0" index="0" speed="12.30" length="34.99" shape="323.20,301.60 312.35,300.45 304.60,297.00 299.95,291.25 298.40,283.20"/>
    </edge>
    <edge id=":J0_10" function="internal">
        <lane id=":J0_10_0" index="0" speed="6.51" length="9.03" shape="317.60,283.20 317.95,285.65 319.00,287.40 320.75,288.45 323.20,288.80"/>
    </edge>
    <edge id=":J0_11" function="internal">
        <lane id=":J0_11_0" index="0" speed="13.89" length="36.80" shape="314.40,283.20 314.40,320.00"/>
        <lane id=":J0_11_1" index="1" speed="13.89" length="36.80" shape="311.20,283.20 311.20,320.00"/>
        <lane id=":J0_11_2" index="2" speed="13.89" length="36.80" shape="308.00,283.20 308.00,320.00"/>
        <lane id=":J0_11_3" index="3" speed="13.89" length="36.80" shape="304.80,283.20 304.80,320.00"/>
    </edge>
    <edge id=":J0_15" function="internal">
        <lane id=":J0_15_0" index="0" speed="11.84" length="32.30" shape="301.60,283.20 300.25,291.25 296.20,297.00 289.45,300.45 280.00,301.60"/>
    </edge>
    <edge id=":J0_16" function="internal">
        <lane id=":J0_16_0" index="0" speed="6.51" length="9.03" shape="280.00,288.80 282.45,288.45 284.20,287.40 285.25,285.65 285.60,283.20"/>
    </edge>
    <edge id=":J0_17" function="internal">
        <lane id=":J0_17_0" index="0" speed="13.89" length="43.20" shape="280.00,292.00 323.20,292.00"/>
        <lane id=":J0_17_1" index="1" speed="13.89" length="43.20" shape="280.00,295.20 323.20,295.20"/>
    </edge>
    <edge id=":J0_19" function="internal">
        <lane id=":J0_19_0" index="0" speed="12.28" length="34.84" shape="280.00,298.40 289.45,299.75 296.20,303.80 300.25,310.55 301.60,320.00"/>
    </edge>
    <edge id=":J1_0" function="internal">
        <lane id=":J1_0_0" index="0" speed="3.65" length="4.67" shape="301.60,600.00 300.80,601.20 300.00,601.60 299.20,601.20 298.40,600.00"/>
    </edge>
    <edge id=":J2_0" function="internal">
        <lane id=":J2_0_0" index="0" speed="3.65" length="4.67" shape="600.00,298.40 601.20,299.20 601.60,300.00 601.20,300.80 600.00,301.60"/>
    </edge>
    <edge id=":J3_0" function="internal">
        <lane id=":J3_0_0" index="0" speed="3.65" length="4.67" shape="298.40,0.00 299.20,-1.20 300.00,-1.60 300.80,-1.20 301.60,0.00"/>
    </edge>
    <edge id=":J4_0" function="internal">
        <lane id=":J4_0_0" index="0" speed="3.65" length="4.67" shape="0.00,301.60 -1.20,300.80 -1.60,300.00 -1.20,299.20 0.00,298.40"/>
    </edge>

    <edge id="1I" from="J1" to="J0" priority="-1">
        <lane id="1I_0" index="0" speed="13.89" length="280.00" shape="285.60,600.00 285.60,320.00"/>
        <lane id="1I_1" index="1" speed="13.89" length="280.00" shape="288.80,600.00 288.80,320.00"/>
        <lane id="1I_2" index="2" speed="13.89" length="280.00" shape="292.00,600.00 292.00,320.00"/>
        <lane id="1I_3" index="3" speed="13.89" length="280.00" shape="295.20,600.00 295.20,320.00"/>
        <lane id="1I_4" index="4" speed="13.89" length="280.00" shape="298.40,600.00 298.40,320.00"/>
    </edge>
    <edge id="1O" from="J0" to="J1" priority="-1">
        <lane id="1O_0" index="0" speed="13.89" length="280.00" shape="317.60,320.00 317.60,600.00"/>
        <lane id="1O_1" index="1" speed="13.89" length="280.00" shape="314.40,320.00 314.40,600.00"/>
        <lane id="1O_2" index="2" speed="13.89" length="280.00" shape="311.20,320.00 311.20,600.00"/>
        <lane id="1O_3" index="3" speed="13.89" length="280.00" shape="308.00,320.00 308.00,600.00"/>
        <lane id="1O_4" index="4" speed="13.89" length="280.00" shape="304.80,320.00 304.80,600.00"/>
        <lane id="1O_5" index="5" speed="13.89" length="280.00" shape="301.60,320.00 301.60,600.00"/>
    </edge>
    <edge id="2I" from="J2" to="J0" priority="-1">
        <lane id="2I_0" index="0" speed="13.89" length="276.80" shape="600.00,314.40 323.20,314.40"/>
        <lane id="2I_1" index="1" speed="13.89" length="276.80" shape="600.00,311.20 323.20,311.20"/>
        <lane id="2I_2" index="2" speed="13.89" length="276.80" shape="600.00,308.00 323.20,308.00"/>
        <lane id="2I_3" index="3" speed="13.89" length="276.80" shape="600.00,304.80 323.20,304.80"/>
        <lane id="2I_4" index="4" speed="13.89" length="276.80" shape="600.00,301.60 323.20,301.60"/>
    </edge>
    <edge id="2O" from="J0" to="J2" priority="-1">
        <lane id="2O_0" index="0" speed="13.89" length="276.80" shape="323.20,288.80 600.00,288.80"/>
        <lane id="2O_1" index="1" speed="13.89" length="276.80" shape="323.20,292.00 600.00,292.00"/>
        <lane id="2O_2" index="2" speed="13.89" length="276.80" shape="323.20,295.20 600.00,295.20"/>
        <lane id="2O_3" index="3" speed="13.89" length="276.80" shape="323.20,298.40 600.00,298.40"/>
    </edge>
    <edge id="3I" from="J3" to="J0" priority="-1">
        <lane id="3I_0" index="0" speed="13.89" length="283.20" shape="317.60,0.00 317.60,283.20"/>
        <lane id="3I_1" index="1" speed="13.89" length="283.20" shape="314.40,0.00 314.40,283.20"/>
        <lane id="3I_2" index="2" speed="13.89" length="283.20" shape="311.20,0.00 311.20,283.20"/>
        <lane id="3I_3" index="3" speed="13.89" length="283.20" shape="308.00,0.00 308.00,283.20"/>
        <lane id="3I_4" index="4" speed="13.89" length="283.20" shape="304.80,0.00 304.80,283.20"/>
        <lane id="3I_5" index="5" speed="13.89" length="283.20" shape="301.60,0.00 301.60,283.20"/>
    </edge>
    <edge id="3O" from="J0" to="J3" priority="-1">
        <lane id="3O_0" index="0" speed="13.89" length="283.20" shape="285.60,283.20 285.60,0.00"/>
        <lane id="3O_1" index="1" speed="13.89" length="283.20" shape="288.80,283.20 288.80,0.00"/>
        <lane id="3O_2" index="2" speed="13.89" length="283.20" shape="292.00,283.20 292.00,0.00"/>
        <lane id="3O_3" index="3" speed="13.89" length="283.20" shape="295.20,283.20 295.20,0.00"/>
        <lane id="3O_4" index="4" speed="13.89" length="283.20" shape="298.40,283.20 298.40,0.00"/>
    </edge>
    <edge id="4I" from="J4" to="J0" priority="-1">
        <lane id="4I_0" index="0" speed="13.89" length="280.00" shape="0.00,288.80 280.00,288.80"/>
        <lane id="4I_1" index="1" speed="13.89" length="280.00" shape="0.00,292.00 280.00,292.00"/>
        <lane id="4I_2" index="2" speed="13.89" length="280.00" shape="0.00,295.20 280.00,295.20"/>
        <lane id="4I_3" index="3" speed="13.89" length="280.00" shape="0.00,298.40 280.00,298.40"/>
    </edge>
    <edge id="4O" from="J0" to="J4" priority="-1">
        <lane id="4O_0" index="0" speed="13.89" length="280.00" shape="280.00,314.40 0.00,314.40"/>
        <lane id="4O_1" index="1" speed="13.89" length="280.00" shape="280.00,311.20 0.00,311.20"/>
        <lane id="4O_2" index="2" speed="13.89" length="280.00" shape="280.00,308.00 0.00,308.00"/>
        <lane id="4O_3" index="3" speed="13.89" length="280.00" shape="280.00,304.80 0.00,304.80"/>
        <lane id="4O_4" index="4" speed="13.89" length="280.00" shape="280.00,301.60 0.00,301.60"/>
    </edge>

    <tlLogic id="J0" type="static" programID="0" offset="0">
        <phase duration="15" state="rrrrGGrrrrrrrrrGGrrr"/>
        <phase duration="3"  state="rrrrYYrrrrrrrrrYYrrr"/>
        <phase duration="15" state="GGGGrrrrrrGGGGGrrrrr"/>
        <phase duration="3"  state="GYYYrrrrrrGYYYYrrrrr"/>
        <phase duration="15" state="GrrrrrrrrGGrrrrrrrrG"/>
        <phase duration="3"  state="YrrrrrrrrYYrrrrrrrrY"/>
        <phase duration="15" state="rrrrrGGGGrrrrrrrGGGr"/>
        <phase duration="3"  state="rrrrrGYYYrrrrrrrGYYr"/>
    </tlLogic>

    <junction id="J0" type="traffic_light" x="300.00" y="300.00" incLanes="1I_0 1I_1 1I_2 1I_3 1I_4 2I_0 2I_1 2I_2 2I_3 2I_4 3I_0 3I_1 3I_2 3I_3 3I_4 3I_5 4I_0 4I_1 4I_2 4I_3" intLanes=":J0_0_0 :J0_1_0 :J0_1_1 :J0_1_2 :J0_4_0 :J0_5_0 :J0_6_0 :J0_6_1 :J0_6_2 :J0_9_0 :J0_10_0 :J0_11_0 :J0_11_1 :J0_11_2 :J0_11_3 :J0_15_0 :J0_16_0 :J0_17_0 :J0_17_1 :J0_19_0" shape="284.00,320.00 319.20,320.00 319.64,317.78 320.20,317.00 320.98,316.44 321.98,316.11 323.20,316.00 323.20,287.20 320.98,286.76 320.20,286.20 319.64,285.42 319.31,284.42 319.20,283.20 284.00,283.20 283.56,285.42 283.00,286.20 282.22,286.76 281.22,287.09 280.00,287.20 280.00,316.00 282.22,316.44 283.00,317.00 283.56,317.78 283.89,318.78">
        <request index="0"  response="00000000000000000000" foes="00000000000000000000" cont="0"/>
        <request index="1"  response="00000000000000000000" foes="11101000000111000000" cont="0"/>
        <request index="2"  response="00000000000000000000" foes="11101000000111000000" cont="0"/>
        <request index="3"  response="00000000000000000000" foes="11101000000111000000" cont="0"/>
        <request index="4"  response="00000111100000000000" foes="10000111101111000000" cont="0"/>
        <request index="5"  response="00000000000000000000" foes="00000000000000000000" cont="0"/>
        <request index="6"  response="00000111100000011110" foes="10000111100000011110" cont="0"/>
        <request index="7"  response="00000111100000011110" foes="10000111100000011110" cont="0"/>
        <request index="8"  response="00000111100000011110" foes="10000111100000011110" cont="0"/>
        <request index="9"  response="01101111100000010000" foes="01101111100000010000" cont="0"/>
        <request index="10" response="00000000000000000000" foes="00000000000000000000" cont="0"/>
        <request index="11" response="00000000000000000000" foes="01100000001111010000" cont="0"/>
        <request index="12" response="00000000000000000000" foes="01100000001111010000" cont="0"/>
        <request index="13" response="00000000000000000000" foes="01100000001111010000" cont="0"/>
        <request index="14" response="00000000000000000000" foes="01100000001111010000" cont="0"/>
        <request index="15" response="00000000000000001110" foes="11100000001000001110" cont="0"/>
        <request index="16" response="00000000000000000000" foes="00000000000000000000" cont="0"/>
        <request index="17" response="00001111100000001110" foes="00001111101000001110" cont="0"/>
        <request index="18" response="00001111100000001110" foes="00001111101000001110" cont="0"/>
        <request index="19" response="00001000000111011110" foes="00001000000111011110" cont="0"/>
    </junction>
    <junction id="J1" type="priority" x="300.00" y="600.00" incLanes="1O_0 1O_1 1O_2 1O_3 1O_4 1O_5" intLanes=":J1_0_0" shape="300.00,600.00 319.20,600.00 300.00,600.00">
        <request index="0" response="0" foes="0" cont="0"/>
    </junction>
    <junction id="J2" type="priority" x="600.00" y="300.00" incLanes="2O_0 2O_1 2O_2 2O_3" intLanes=":J2_0_0" shape="600.00,300.00 600.00,287.20 600.00,300.00">
        <request index="0" response="0" foes="0" cont="0"/>
    </junction>
    <junction id="J3" type="priority" x="300.00" y="0.00" incLanes="3O_0 3O_1 3O_2 3O_3 3O_4" intLanes=":J3_0_0" shape="300.00,0.00 284.00,0.00 300.00,0.00">
        <request index="0" response="0" foes="0" cont="0"/>
    </junction>
    <junction id="J4" type="priority" x="0.00" y="300.00" incLanes="4O_0 4O_1 4O_2 4O_3 4O_4" intLanes=":J4_0_0" shape="0.00,300.00 0.00,316.00 0.00,300.00">
        <request index="0" response="0" foes="0" cont="0"/>
    </junction>

    <connection from="1I" to="4O" fromLane="0" toLane="0" contPos="0.00" via=":J0_0_0" tl="J0" linkIndex="0" dir="r" state="O"/>
    <connection from="1I" to="3O" fromLane="1" toLane="1" contPos="0.00" via=":J0_1_0" tl="J0" linkIndex="1" dir="s" state="O"/>
    <connection from="1I" to="3O" fromLane="2" toLane="2" contPos="0.00" via=":J0_1_1" tl="J0" linkIndex="2" dir="s" state="O"/>
    <connection from="1I" to="3O" fromLane="3" toLane="3" contPos="0.00" via=":J0_1_2" tl="J0" linkIndex="3" dir="s" state="O"/>
    <connection from="1I" to="2O" fromLane="4" toLane="3" contPos="0.00" via=":J0_4_0" tl="J0" linkIndex="4" dir="l" state="o"/>
    <connection from="1O" to="1I" fromLane="5" toLane="4" via=":J1_0_0" dir="t" state="M"/>
    <connection from="2I" to="1O" fromLane="0" toLane="0" contPos="0.00" via=":J0_5_0" tl="J0" linkIndex="5" dir="r" state="O"/>
    <connection from="2I" to="4O" fromLane="1" toLane="1" contPos="0.00" via=":J0_6_0" tl="J0" linkIndex="6" dir="s" state="o"/>
    <connection from="2I" to="4O" fromLane="2" toLane="2" contPos="0.00" via=":J0_6_1" tl="J0" linkIndex="7" dir="s" state="o"/>
    <connection from="2I" to="4O" fromLane="3" toLane="3" contPos="0.00" via=":J0_6_2" tl="J0" linkIndex="8" dir="s" state="o"/>
    <connection from="2I" to="3O" fromLane="4" toLane="4" contPos="0.00" via=":J0_9_0" tl="J0" linkIndex="9" dir="l" state="o"/>
    <connection from="2O" to="2I" fromLane="3" toLane="4" via=":J2_0_0" dir="t" state="M"/>
    <connection from="3I" to="2O" fromLane="0" toLane="0" contPos="0.00" via=":J0_10_0" tl="J0" linkIndex="10" dir="r" state="O"/>
    <connection from="3I" to="1O" fromLane="1" toLane="1" contPos="0.00" via=":J0_11_0" tl="J0" linkIndex="11" dir="s" state="O"/>
    <connection from="3I" to="1O" fromLane="2" toLane="2" contPos="0.00" via=":J0_11_1" tl="J0" linkIndex="12" dir="s" state="O"/>
    <connection from="3I" to="1O" fromLane="3" toLane="3" contPos="0.00" via=":J0_11_2" tl="J0" linkIndex="13" dir="s" state="O"/>
    <connection from="3I" to="1O" fromLane="4" toLane="4" contPos="0.00" via=":J0_11_3" tl="J0" linkIndex="14" dir="s" state="O"/>
    <connection from="3I" to="4O" fromLane="5" toLane="4" contPos="0.00" via=":J0_15_0" tl="J0" linkIndex="15" dir="l" state="o"/>
    <connection from="3O" to="3I" fromLane="4" toLane="5" via=":J3_0_0" dir="t" state="M"/>
    <connection from="4I" to="3O" fromLane="0" toLane="0" contPos="0.00" via=":J0_16_0" tl="J0" linkIndex="16" dir="r" state="O"/>
    <connection from="4I" to="2O" fromLane="1" toLane="1" contPos="0.00" via=":J0_17_0" tl="J0" linkIndex="17" dir="s" state="o"/>
    <connection from="4I" to="2O" fromLane="2" toLane="2" contPos="0.00" via=":J0_17_1" tl="J0" linkIndex="18" dir="s" state="o"/>
    <connection from="4I" to="1O" fromLane="3" toLane="5" contPos="0.00" via=":J0_19_0" tl="J0" linkIndex="19" dir="l" state="o"/>
    <connection from="4O" to="4I" fromLane="4" toLane="3" via=":J4_0_0" dir="t" state="M"/>

    <connection from=":J0_0" to="4O" fromLane="0" toLane="0" dir="r" state="M"/>
    <connection from=":J0_1" to="3O" fromLane="0" toLane="1" dir="s" state="M"/>
    <connection from=":J0_1" to="3O" fromLane="1" toLane="2" dir="s" state="M"/>
    <connection from=":J0_1" to="3O" fromLane="2" toLane="3" dir="s" state="M"/>
    <connection from=":J0_4" to="2O" fromLane="0" toLane="3" dir="l" state="M"/>
    <connection from=":J0_5" to="1O" fromLane="0" toLane="0" dir="r" state="M"/>
    <connection from=":J0_6" to="4O" fromLane="0" toLane="1" dir="s" state="M"/>
    <connection from=":J0_6" to="4O" fromLane="1" toLane="2" dir="s" state="M"/>
    <connection from=":J0_6" to="4O" fromLane="2" toLane="3" dir="s" state="M"/>
    <connection from=":J0_9" to="3O" fromLane="0" toLane="4" dir="l" state="M"/>
    <connection from=":J0_10" to="2O" fromLane="0" toLane="0" dir="r" state="M"/>
    <connection from=":J0_11" to="1O" fromLane="0" toLane="1" dir="s" state="M"/>
    <connection from=":J0_11" to="1O" fromLane="1" toLane="2" dir="s" state="M"/>
    <connection from=":J0_11" to="1O" fromLane="2" toLane="3" dir="s" state="M"/>
    <connection from=":J0_11" to="1O" fromLane="3" toLane="4" dir="s" state="M"/>
    <connection from=":J0_15" to="4O" fromLane="0" toLane="4" dir="l" state="M"/>
    <connection from=":J0_16" to="3O" fromLane="0" toLane="0" dir="r" state="M"/>
    <connection from=":J0_17" to="2O" fromLane="0" toLane="1" dir="s" state="M"/>
    <connection from=":J0_17" to="2O" fromLane="1" toLane="2" dir="s" state="M"/>
    <connection from=":J0_19" to="1O" fromLane="0" toLane="5" dir="l" state="M"/>
    <connection from=":J1_0" to="1I" fromLane="0" toLane="4" dir="t" state="M"/>
    <connection from=":J2_0" to="2I" fromLane="0" toLane="4" dir="t" state="M"/>
    <connection from=":J3_0" to="3I" fromLane="0" toLane="5" dir="t" state="M"/>
    <connection from=":J4_0" to="4I" fromLane="0" toLane="3" dir="t" state="M"/>

</net>
