<?xml version="1.0" encoding="UTF-8"?>

<!-- generated on 2022-04-07 14:06:47 by Eclipse SUMO netconvert Version 1.9.2
<configuration xmlns:xsi="http://www.w3.org/2001/XMLSchema-instance" xsi:noNamespaceSchemaLocation="http://sumo.dlr.de/xsd/netconvertConfiguration.xsd">

    <input>
        <node-files value="network/inputs/input.nod.xml"/>
        <edge-files value="network/inputs/input_7_6_7_3.edg.xml"/>
        <connection-files value="network/inputs/input_rssslll_rrsssl_rsssssl_rsl.con.xml"/>
        <tllogic-files value="network/inputs/input_rssslll_rrsssl_rsssssl_rsl.tll.xml"/>
    </input>

    <output>
        <output-file value="network/rssslll_rrsssl_rsssssl_rsl.net.xml"/>
    </output>

    <report>
        <no-warnings value="true"/>
        <aggregate-warnings value="5"/>
        <log value="network/log/rssslll_rrsssl_rsssssl_rsl.log.xml"/>
    </report>

</configuration>
-->

<net version="1.9" junctionCornerDetail="5" limitTurnSpeed="5.50" xmlns:xsi="http://www.w3.org/2001/XMLSchema-instance" xsi:noNamespaceSchemaLocation="http://sumo.dlr.de/xsd/net_file.xsd">

    <location netOffset="300.00,300.00" convBoundary="0.00,0.00,600.00,600.00" origBoundary="-300.00,-300.00,300.00,300.00" projParameter="!"/>

    <edge id=":J0_0" function="internal">
        <lane id=":J0_0_0" index="0" speed="6.51" length="9.03" shape="279.20,323.20 278.85,320.75 277.80,319.00 276.05,317.95 273.60,317.60"/>
    </edge>
    <edge id=":J0_1" function="internal">
        <lane id=":J0_1_0" index="0" speed="13.89" length="36.80" shape="282.40,323.20 282.40,286.40"/>
        <lane id=":J0_1_1" index="1" speed="13.89" length="36.80" shape="285.60,323.20 285.60,286.40"/>
        <lane id=":J0_1_2" index="2" speed="13.89" length="36.80" shape="288.80,323.20 288.80,286.40"/>
    </edge>
    <edge id=":J0_4" function="internal">
        <lane id=":J0_4_0" index="0" speed="13.89" length="52.92" shape="292.00,323.20 294.15,309.55 300.60,299.80 311.35,293.95 326.40,292.00"/>
        <lane id=":J0_4_1" index="1" speed="13.89" length="47.77" shape="295.20,323.20 297.15,310.95 303.00,302.20 312.75,296.95 326.40,295.20"/>
        <lane id=":J0_4_2" index="2" speed="13.54" length="42.61" shape="298.40,323.20 300.15,312.35 305.40,304.60 314.15,299.95 326.40,298.40"/>
    </edge>
    <edge id=":J0_7" function="internal">
        <lane id=":J0_7_0" index="0" speed="6.51" length="9.03" shape="326.40,317.60 323.95,317.95 322.20,319.00 321.15,320.75 320.80,323.20"/>
        <lane id=":J0_7_1" index="1" speed="8.00" length="14.19" shape="326.40,314.40 322.55,314.95 319.80,316.60 318.15,319.35 317.60,323.20"/>
    </edge>
    <edge id=":J0_9" function="internal">
        <lane id=":J0_9_0" index="0" speed="13.89" length="52.80" shape="326.40,311.20 273.60,311.20"/>
        <lane id=":J0_9_1" index="1" speed="13.89" length="52.80" shape="326.40,308.00 273.60,308.00"/>
        <lane id=":J0_9_2" index="2" speed="13.89" length="52.80" shape="326.40,304.80 273.60,304.80"/>
    </edge>
    <edge id=":J0_12" function="internal">
        <lane id=":J0_12_0" index="0" speed="12.38" length="35.45" shape="326.40,301.60 314.15,300.65 305.40,297.80 300.15,293.05 298.40,286.40"/>
    </edge>
    <edge id=":J0_13" function="internal">
        <lane id=":J0_13_0" index="0" speed="6.51" length="9.03" shape="320.80,286.40 321.15,288.85 322.20,290.60 323.95,291.65 326.40,292.00"/>
    </edge>
    <edge id=":J0_14" function="internal">
        <lane id=":J0_14_0" index="0" speed="13.89" length="36.80" shape="317.60,286.40 317.60,323.20"/>
        <lane id=":J0_14_1" index="1" speed="13.89" length="36.80" shape="314.40,286.40 314.40,323.20"/>
        <lane id=":J0_14_2" index="2" speed="13.89" length="36.80" shape="311.20,286.40 311.20,323.20"/>
        <lane id=":J0_14_3" index="3" speed="13.89" length="36.80" shape="308.00,286.40 308.00,323.20"/>
        <lane id=":J0_14_4" index="4" speed="13.89" length="36.80" shape="304.80,286.40 304.80,323.20"/>
    </edge>
    <edge id=":J0_19" function="internal">
        <lane id=":J0_19_0" index="0" speed="12.38" length="35.45" shape="301.60,286.40 299.85,293.05 294.60,297.80 285.85,300.65 273.60,301.60"/>
    </edge>
    <edge id=":J0_20" function="internal">
        <lane id=":J0_20_0" index="0" speed="6.51" length="9.03" shape="273.60,292.00 276.05,291.65 277.80,290.60 278.85,288.85 279.20,286.40"/>
    </edge>
    <edge id=":J0_21" function="internal">
        <lane id=":J0_21_0" index="0" speed="13.89" length="52.80" shape="273.60,295.20 326.40,295.20"/>
    </edge>
    <edge id=":J0_22" function="internal">
        <lane id=":J0_22_0" index="0" speed="13.54" length="42.61" shape="273.60,298.40 285.85,299.95 294.60,304.60 299.85,312.35 301.60,323.20"/>
    </edge>
    <edge id=":J1_0" function="internal">
        <lane id=":J1_0_0" index="0" speed="3.65" length="4.67" shape="301.60,600.00 300.80,601.20 300.00,601.60 299.20,601.20 298.40,600.00"/>
    </edge>
    <edge id=":J2_0" function="internal">
        <lane id=":J2_0_0" index="0" speed="3.65" length="4.67" shape="600.00,298.40 601.20,299.20 601.60,300.00 601.20,300.80 600.00,301.60"/>
    </edge>
    <edge id=":J3_0" function="internal">
        <lane id=":J3_0_0" index="0" speed="3.65" length="4.67" shape="298.40,0.00 299.20,-1.20 300.00,-1.60 300.80,-1.20 301.60,0.00"/>
    </edge>
    <edge id=":J4_0" function="internal">
        <lane id=":J4_0_0" index="0" speed="3.65" length="4.67" shape="0.00,301.60 -1.20,300.80 -1.60,300.00 -1.20,299.20 0.00,298.40"/>
    </edge>

    <edge id="1I" from="J1" to="J0" priority="-1">
        <lane id="1I_0" index="0" speed="13.89" length="276.80" shape="279.20,600.00 279.20,323.20"/>
        <lane id="1I_1" index="1" speed="13.89" length="276.80" shape="282.40,600.00 282.40,323.20"/>
        <lane id="1I_2" index="2" speed="13.89" length="276.80" shape="285.60,600.00 285.60,323.20"/>
        <lane id="1I_3" index="3" speed="13.89" length="276.80" shape="288.80,600.00 288.80,323.20"/>
        <lane id="1I_4" index="4" speed="13.89" length="276.80" shape="292.00,600.00 292.00,323.20"/>
        <lane id="1I_5" index="5" speed="13.89" length="276.80" shape="295.20,600.00 295.20,323.20"/>
        <lane id="1I_6" index="6" speed="13.89" length="276.80" shape="298.40,600.00 298.40,323.20"/>
    </edge>
    <edge id="1O" from="J0" to="J1" priority="-1">
        <lane id="1O_0" index="0" speed="13.89" length="276.80" shape="320.80,323.20 320.80,600.00"/>
        <lane id="1O_1" index="1" speed="13.89" length="276.80" shape="317.60,323.20 317.60,600.00"/>
        <lane id="1O_2" index="2" speed="13.89" length="276.80" shape="314.40,323.20 314.40,600.00"/>
        <lane id="1O_3" index="3" speed="13.89" length="276.80" shape="311.20,323.20 311.20,600.00"/>
        <lane id="1O_4" index="4" speed="13.89" length="276.80" shape="308.00,323.20 308.00,600.00"/>
        <lane id="1O_5" index="5" speed="13.89" length="276.80" shape="304.80,323.20 304.80,600.00"/>
        <lane id="1O_6" index="6" speed="13.89" length="276.80" shape="301.60,323.20 301.60,600.00"/>
    </edge>
    <edge id="2I" from="J2" to="J0" priority="-1">
        <lane id="2I_0" index="0" speed="13.89" length="273.60" shape="600.00,317.60 326.40,317.60"/>
        <lane id="2I_1" index="1" speed="13.89" length="273.60" shape="600.00,314.40 326.40,314.40"/>
        <lane id="2I_2" index="2" speed="13.89" length="273.60" shape="600.00,311.20 326.40,311.20"/>
        <lane id="2I_3" index="3" speed="13.89" length="273.60" shape="600.00,308.00 326.40,308.00"/>
        <lane id="2I_4" index="4" speed="13.89" length="273.60" shape="600.00,304.80 326.40,304.80"/>
        <lane id="2I_5" index="5" speed="13.89" length="273.60" shape="600.00,301.60 326.40,301.60"/>
    </edge>
    <edge id="2O" from="J0" to="J2" priority="-1">
        <lane id="2O_0" index="0" speed="13.89" length="273.60" shape="326.40,292.00 600.00,292.00"/>
        <lane id="2O_1" index="1" speed="13.89" length="273.60" shape="326.40,295.20 600.00,295.20"/>
        <lane id="2O_2" index="2" speed="13.89" length="273.60" shape="326.40,298.40 600.00,298.40"/>
    </edge>
    <edge id="3I" from="J3" to="J0" priority="-1">
        <lane id="3I_0" index="0" speed="13.89" length="286.40" shape="320.80,0.00 320.80,286.40"/>
        <lane id="3I_1" index="1" speed="13.89" length="286.40" shape="317.60,0.00 317.60,286.40"/>
        <lane id="3I_2" index="2" speed="13.89" length="286.40" shape="314.40,0.00 314.40,286.40"/>
        <lane id="3I_3" index="3" speed="13.89" length="286.40" shape="311.20,0.00 311.20,286.40"/>
        <lane id="3I_4" index="4" speed="13.89" length="286.40" shape="308.00,0.00 308.00,286.40"/>
        <lane id="3I_5" index="5" speed="13.89" length="286.40" shape="304.80,0.00 304.80,286.40"/>
        <lane id="3I_6" index="6" speed="13.89" length="286.40" shape="301.60,0.00 301.60,286.40"/>
    </edge>
    <edge id="3O" from="J0" to="J3" priority="-1">
        <lane id="3O_0" index="0" speed="13.89" length="286.40" shape="279.20,286.40 279.20,0.00"/>
        <lane id="3O_1" index="1" speed="13.89" length="286.40" shape="282.40,286.40 282.40,0.00"/>
        <lane id="3O_2" index="2" speed="13.89" length="286.40" shape="285.60,286.40 285.60,0.00"/>
        <lane id="3O_3" index="3" speed="13.89" length="286.40" shape="288.80,286.40 288.80,0.00"/>
        <lane id="3O_4" index="4" speed="13.89" length="286.40" shape="292.00,286.40 292.00,0.00"/>
        <lane id="3O_5" index="5" speed="13.89" length="286.40" shape="295.20,286.40 295.20,0.00"/>
        <lane id="3O_6" index="6" speed="13.89" length="286.40" shape="298.40,286.40 298.40,0.00"/>
    </edge>
    <edge id="4I" from="J4" to="J0" priority="-1">
        <lane id="4I_0" index="0" speed="13.89" length="273.60" shape="0.00,292.00 273.60,292.00"/>
        <lane id="4I_1" index="1" speed="13.89" length="273.60" shape="0.00,295.20 273.60,295.20"/>
        <lane id="4I_2" index="2" speed="13.89" length="273.60" shape="0.00,298.40 273.60,298.40"/>
    </edge>
    <edge id="4O" from="J0" to="J4" priority="-1">
        <lane id="4O_0" index="0" speed="13.89" length="273.60" shape="273.60,317.60 0.00,317.60"/>
        <lane id="4O_1" index="1" speed="13.89" length="273.60" shape="273.60,314.40 0.00,314.40"/>
        <lane id="4O_2" index="2" speed="13.89" length="273.60" shape="273.60,311.20 0.00,311.20"/>
        <lane id="4O_3" index="3" speed="13.89" length="273.60" shape="273.60,308.00 0.00,308.00"/>
        <lane id="4O_4" index="4" speed="13.89" length="273.60" shape="273.60,304.80 0.00,304.80"/>
        <lane id="4O_5" index="5" speed="13.89" length="273.60" shape="273.60,301.60 0.00,301.60"/>
    </edge>

    <tlLogic id="J0" type="static" programID="0" offset="0">
        <phase duration="15" state="rrrrGGGGGrrrrrrrrrrGGrr"/>
        <phase duration="3"  state="rrrrYYYYYrrrrrrrrrrYYrr"/>
        <phase duration="15" state="GGGGrrrrrrrrrGGGGGGrrrr"/>
        <phase duration="3"  state="GYYYrrrrrrrrrGYYYYYrrrr"/>
        <phase duration="15" state="GrrrrrrrrrrrGGrrrrrrrrG"/>
        <phase duration="3"  state="YrrrrrrrrrrrYYrrrrrrrrY"/>
        <phase duration="15" state="rrrrrrrGGGGGrrrrrrrrGGr"/>
        <phase duration="3"  state="rrrrrrrGGYYYrrrrrrrrGYr"/>
    </tlLogic>

    <junction id="J0" type="traffic_light" x="300.00" y="300.00" incLanes="1I_0 1I_1 1I_2 1I_3 1I_4 1I_5 1I_6 2I_0 2I_1 2I_2 2I_3 2I_4 2I_5 3I_0 3I_1 3I_2 3I_3 3I_4 3I_5 3I_6 4I_0 4I_1 4I_2" intLanes=":J0_0_0 :J0_1_0 :J0_1_1 :J0_1_2 :J0_4_0 :J0_4_1 :J0_4_2 :J0_7_0 :J0_7_1 :J0_9_0 :J0_9_1 :J0_9_2 :J0_12_0 :J0_13_0 :J0_14_0 :J0_14_1 :J0_14_2 :J0_14_3 :J0_14_4 :J0_19_0 :J0_20_0 :J0_21_0 :J0_22_0" shape="277.60,323.20 322.40,323.20 322.84,320.98 323.40,320.20 324.18,319.64 325.18,319.31 326.40,319.20 326.40,290.40 324.18,289.96 323.40,289.40 322.84,288.62 322.51,287.62 322.40,286.40 277.60,286.40 277.16,288.62 276.60,289.40 275.82,289.96 274.82,290.29 273.60,290.40 273.60,319.20 275.82,319.64 276.60,320.20 277.16,320.98 277.49,321.98">
        <request index="0"  response="00000000000000000000000" foes="00000000000000000000000" cont="0"/>
        <request index="1"  response="00000000000000000000000" foes="11010000000111000000000" cont="0"/>
        <request index="2"  response="00000000000000000000000" foes="11010000000111000000000" cont="0"/>
        <request index="3"  response="00000000000000000000000" foes="11010000000111000000000" cont="0"/>
        <request index="4"  response="00001111110000000000000" foes="11001111111111000000000" cont="0"/>
        <request index="5"  response="00001111110000000000000" foes="11001111111111000000000" cont="0"/>
        <request index="6"  response="00001111110000000000000" foes="11001111111111000000000" cont="0"/>
        <request index="7"  response="00001111100000000000000" foes="00001111100000000000000" cont="0"/>
        <request index="8"  response="00001111100000000000000" foes="00001111100000000000000" cont="0"/>
        <request index="9"  response="00001111100000001111110" foes="10001111100000001111110" cont="0"/>
        <request index="10" response="00001111100000001111110" foes="10001111100000001111110" cont="0"/>
        <request index="11" response="00001111100000001111110" foes="10001111100000001111110" cont="0"/>
        <request index="12" response="01011111100000001110000" foes="01011111100000001110000" cont="0"/>
        <request index="13" response="00000000000000000000000" foes="00000000000000001110000" cont="0"/>
        <request index="14" response="00000000000000000000000" foes="01000000001111111110000" cont="0"/>
        <request index="15" response="00000000000000000000000" foes="01000000001111111110000" cont="0"/>
        <request index="16" response="00000000000000000000000" foes="01000000001111111110000" cont="0"/>
        <request index="17" response="00000000000000000000000" foes="01000000001111111110000" cont="0"/>
        <request index="18" response="00000000000000000000000" foes="01000000001111111110000" cont="0"/>
        <request index="19" response="00000000000000000001110" foes="11000000001000000001110" cont="0"/>
        <request index="20" response="00000000000000000000000" foes="00000000000000000000000" cont="0"/>
        <request index="21" response="00011111100000001111110" foes="00011111101000001111110" cont="0"/>
        <request index="22" response="00010000000111001111110" foes="00010000000111001111110" cont="0"/>
    </junction>
    <junction id="J1" type="priority" x="300.00" y="600.00" incLanes="1O_0 1O_1 1O_2 1O_3 1O_4 1O_5 1O_6" intLanes=":J1_0_0" shape="300.00,600.00 322.40,600.00 300.00,600.00">
        <request index="0" response="0" foes="0" cont="0"/>
    </junction>
    <junction id="J2" type="priority" x="600.00" y="300.00" incLanes="2O_0 2O_1 2O_2" intLanes=":J2_0_0" shape="600.00,300.00 600.00,290.40 600.00,300.00">
        <request index="0" response="0" foes="0" cont="0"/>
    </junction>
    <junction id="J3" type="priority" x="300.00" y="0.00" incLanes="3O_0 3O_1 3O_2 3O_3 3O_4 3O_5 3O_6" intLanes=":J3_0_0" shape="300.00,0.00 277.60,0.00 300.00,0.00">
        <request index="0" response="0" foes="0" cont="0"/>
    </junction>
    <junction id="J4" type="priority" x="0.00" y="300.00" incLanes="4O_0 4O_1 4O_2 4O_3 4O_4 4O_5" intLanes=":J4_0_0" shape="0.00,300.00 0.00,319.20 0.00,300.00">
        <request index="0" response="0" foes="0" cont="0"/>
    </junction>

    <connection from="1I" to="4O" fromLane="0" toLane="0" contPos="0.00" via=":J0_0_0" tl="J0" linkIndex="0" dir="r" state="O"/>
    <connection from="1I" to="3O" fromLane="1" toLane="1" contPos="0.00" via=":J0_1_0" tl="J0" linkIndex="1" dir="s" state="O"/>
    <connection from="1I" to="3O" fromLane="2" toLane="2" contPos="0.00" via=":J0_1_1" tl="J0" linkIndex="2" dir="s" state="O"/>
    <connection from="1I" to="3O" fromLane="3" toLane="3" contPos="0.00" via=":J0_1_2" tl="J0" linkIndex="3" dir="s" state="O"/>
    <connection from="1I" to="2O" fromLane="4" toLane="0" contPos="0.00" via=":J0_4_0" tl="J0" linkIndex="4" dir="l" state="o"/>
    <connection from="1I" to="2O" fromLane="5" toLane="1" contPos="0.00" via=":J0_4_1" tl="J0" linkIndex="5" dir="l" state="o"/>
    <connection from="1I" to="2O" fromLane="6" toLane="2" contPos="0.00" via=":J0_4_2" tl="J0" linkIndex="6" dir="l" state="o"/>
    <connection from="1O" to="1I" fromLane="6" toLane="6" via=":J1_0_0" dir="t" state="M"/>
    <connection from="2I" to="1O" fromLane="0" toLane="0" contPos="0.00" via=":J0_7_0" tl="J0" linkIndex="7" dir="r" state="o"/>
    <connection from="2I" to="1O" fromLane="1" toLane="1" contPos="0.00" via=":J0_7_1" tl="J0" linkIndex="8" dir="r" state="o"/>
    <connection from="2I" to="4O" fromLane="2" toLane="2" contPos="0.00" via=":J0_9_0" tl="J0" linkIndex="9" dir="s" state="o"/>
    <connection from="2I" to="4O" fromLane="3" toLane="3" contPos="0.00" via=":J0_9_1" tl="J0" linkIndex="10" dir="s" state="o"/>
    <connection from="2I" to="4O" fromLane="4" toLane="4" contPos="0.00" via=":J0_9_2" tl="J0" linkIndex="11" dir="s" state="o"/>
    <connection from="2I" to="3O" fromLane="5" toLane="6" contPos="0.00" via=":J0_12_0" tl="J0" linkIndex="12" dir="l" state="o"/>
    <connection from="2O" to="2I" fromLane="2" toLane="5" via=":J2_0_0" dir="t" state="M"/>
    <connection from="3I" to="2O" fromLane="0" toLane="0" contPos="0.00" via=":J0_13_0" tl="J0" linkIndex="13" dir="r" state="O"/>
    <connection from="3I" to="1O" fromLane="1" toLane="1" contPos="0.00" via=":J0_14_0" tl="J0" linkIndex="14" dir="s" state="O"/>
    <connection from="3I" to="1O" fromLane="2" toLane="2" contPos="0.00" via=":J0_14_1" tl="J0" linkIndex="15" dir="s" state="O"/>
    <connection from="3I" to="1O" fromLane="3" toLane="3" contPos="0.00" via=":J0_14_2" tl="J0" linkIndex="16" dir="s" state="O"/>
    <connection from="3I" to="1O" fromLane="4" toLane="4" contPos="0.00" via=":J0_14_3" tl="J0" linkIndex="17" dir="s" state="O"/>
    <connection from="3I" to="1O" fromLane="5" toLane="5" contPos="0.00" via=":J0_14_4" tl="J0" linkIndex="18" dir="s" state="O"/>
    <connection from="3I" to="4O" fromLane="6" toLane="5" contPos="0.00" via=":J0_19_0" tl="J0" linkIndex="19" dir="l" state="o"/>
    <connection from="3O" to="3I" fromLane="6" toLane="6" via=":J3_0_0" dir="t" state="M"/>
    <connection from="4I" to="3O" fromLane="0" toLane="0" contPos="0.00" via=":J0_20_0" tl="J0" linkIndex="20" dir="r" state="O"/>
    <connection from="4I" to="2O" fromLane="1" toLane="1" contPos="0.00" via=":J0_21_0" tl="J0" linkIndex="21" dir="s" state="o"/>
    <connection from="4I" to="1O" fromLane="2" toLane="6" contPos="0.00" via=":J0_22_0" tl="J0" linkIndex="22" dir="l" state="o"/>
    <connection from="4O" to="4I" fromLane="5" toLane="2" via=":J4_0_0" dir="t" state="M"/>

    <connection from=":J0_0" to="4O" fromLane="0" toLane="0" dir="r" state="M"/>
    <connection from=":J0_1" to="3O" fromLane="0" toLane="1" dir="s" state="M"/>
    <connection from=":J0_1" to="3O" fromLane="1" toLane="2" dir="s" state="M"/>
    <connection from=":J0_1" to="3O" fromLane="2" toLane="3" dir="s" state="M"/>
    <connection from=":J0_4" to="2O" fromLane="0" toLane="0" dir="l" state="M"/>
    <connection from=":J0_4" to="2O" fromLane="1" toLane="1" dir="l" state="M"/>
    <connection from=":J0_4" to="2O" fromLane="2" toLane="2" dir="l" state="M"/>
    <connection from=":J0_7" to="1O" fromLane="0" toLane="0" dir="r" state="M"/>
    <connection from=":J0_7" to="1O" fromLane="1" toLane="1" dir="r" state="M"/>
    <connection from=":J0_9" to="4O" fromLane="0" toLane="2" dir="s" state="M"/>
    <connection from=":J0_9" to="4O" fromLane="1" toLane="3" dir="s" state="M"/>
    <connection from=":J0_9" to="4O" fromLane="2" toLane="4" dir="s" state="M"/>
    <connection from=":J0_12" to="3O" fromLane="0" toLane="6" dir="l" state="M"/>
    <connection from=":J0_13" to="2O" fromLane="0" toLane="0" dir="r" state="M"/>
    <connection from=":J0_14" to="1O" fromLane="0" toLane="1" dir="s" state="M"/>
    <connection from=":J0_14" to="1O" fromLane="1" toLane="2" dir="s" state="M"/>
    <connection from=":J0_14" to="1O" fromLane="2" toLane="3" dir="s" state="M"/>
    <connection from=":J0_14" to="1O" fromLane="3" toLane="4" dir="s" state="M"/>
    <connection from=":J0_14" to="1O" fromLane="4" toLane="5" dir="s" state="M"/>
    <connection from=":J0_19" to="4O" fromLane="0" toLane="5" dir="l" state="M"/>
    <connection from=":J0_20" to="3O" fromLane="0" toLane="0" dir="r" state="M"/>
    <connection from=":J0_21" to="2O" fromLane="0" toLane="1" dir="s" state="M"/>
    <connection from=":J0_22" to="1O" fromLane="0" toLane="6" dir="l" state="M"/>
    <connection from=":J1_0" to="1I" fromLane="0" toLane="6" dir="t" state="M"/>
    <connection from=":J2_0" to="2I" fromLane="0" toLane="5" dir="t" state="M"/>
    <connection from=":J3_0" to="3I" fromLane="0" toLane="6" dir="t" state="M"/>
    <connection from=":J4_0" to="4I" fromLane="0" toLane="2" dir="t" state="M"/>

</net>
